<?xml version="1.0" encoding="UTF-8"?>
<nodes xmlns:xsi="http://www.w3.org/2001/XMLSchema-instance" xsi:noNamespaceSchemaLocation="http://sumo.sf.net/xsd/nodes_file.xsd">
    <node id="1" type="priority" x="+9102.127856" y="+5936.618340" />
    <node id="2" type="priority" x="+7102.939458" y="+5893.867847" />
    <node id="3" type="priority" x="+6080.873846" y="+5875.013784" />
    <node id="4" type="priority" x="+6131.297504" y="+5737.335276" />
    <node id="5" type="priority" x="+6114.197307" y="+5157.463216" />
    <node id="6" type="traffic_light_unregulated" x="+6132.393670" y="+5562.606342" />
    <node id="7" type="traffic_light_unregulated" x="+6135.901403" y="+5546.383078" />
    <node id="8" type="priority" x="+6135.243703" y="+5320.134320" />
    <node id="9" type="priority" x="+7147.882283" y="+5644.599593" />
    <node id="10" type="priority" x="+7154.897748" y="+6087.670078" />
    <node id="11" type="priority" x="+7176.163378" y="+5362.007879" />
    <node id="12" type="priority" x="+7185.371176" y="+6105.208742" />
    <node id="13" type="traffic_light_unregulated" x="+7214.967671" y="+5398.839072" />
    <node id="14" type="traffic_light_unregulated" x="+7222.640836" y="+5375.819576" />
    <node id="15" type="traffic_light_unregulated" x="+7225.052402" y="+5953.280070" />
    <node id="16" type="traffic_light_unregulated" x="+7233.164034" y="+5938.810673" />
    <node id="17" type="traffic_light_unregulated" x="+7255.087363" y="+5964.680201" />
    <node id="18" type="traffic_light_unregulated" x="+7262.322062" y="+5950.210804" />
    <node id="20" type="traffic_light_unregulated" x="+7465.551325" y="+5472.501458" />
    <node id="21" type="traffic_light_unregulated" x="+7474.320656" y="+5453.208929" />
    <node id="22" type="traffic_light_unregulated" x="+7496.682452" y="+5481.709257" />
    <node id="23" type="traffic_light_unregulated" x="+7506.986417" y="+5462.855194" />
    <node id="24" type="priority" x="+7529.348213" y="+6046.673453" />
    <node id="25" type="priority" x="+7552.586942" y="+6071.446815" />
    <node id="26" type="priority" x="+7570.564072" y="+5738.869909" />
    <node id="27" type="priority" x="+6550.471560" y="+5712.781148" />
    <node id="28" type="priority" x="+7523.648147" y="+6061.142850" />
    <node id="29" type="priority" x="+4748.154659" y="+5364.200212" />
    <node id="30" type="priority" x="+6209.125323" y="+5103.531826" />
    <node id="31" type="priority" x="+6235.871784" y="+5921.710476" />
    <node id="32" type="traffic_light_unregulated" x="+6120.993539" y="+5541.121479" />
    <node id="33" type="priority" x="+6230.390952" y="+5160.751716" />
    <node id="34" type="priority" x="+6180.186528" y="+5323.642053" />
    <node id="37" type="priority" x="+7348.042280" y="+5780.743468" />
    <node id="38" type="priority" x="+7426.089332" y="+5624.649364" />
    <node id="39" type="priority" x="+6227.321686" y="+5081.608497" />
    <node id="40" type="priority" x="+6150.151567" y="+5100.462560" />
    <node id="41" type="priority" x="+1377.223546" y="+4521.905900" />
    <node id="42" type="priority" x="+6279.718443" y="+5125.455156" />
    <node id="43" type="traffic_light_unregulated" x="+6270.072178" y="+5616.537732" />
    <node id="44" type="traffic_light_unregulated" x="+6277.745343" y="+5597.464435" />
    <node id="45" type="priority" x="+6312.384204" y="+5333.726784" />
    <node id="46" type="traffic_light_unregulated" x="+6339.349899" y="+5142.336119" />
    <node id="47" type="traffic_light_unregulated" x="+6342.638398" y="+5115.151191" />
    <node id="48" type="priority" x="+7613.753031" y="+5634.734095" />
    <node id="49" type="priority" x="+7622.741596" y="+5517.882750" />
    <node id="50" type="priority" x="+7704.515614" y="+5673.319155" />
    <node id="51" type="priority" x="+7782.562666" y="+5706.642615" />
    <node id="52" type="priority" x="+7791.331998" y="+6402.708320" />
    <node id="53" type="priority" x="+7795.935897" y="+6142.697635" />
    <node id="54" type="priority" x="+7848.771121" y="+6029.134789" />
    <node id="55" type="priority" x="+7894.371646" y="+6195.752092" />
    <node id="56" type="priority" x="+7896.783212" y="+5598.122135" />
    <node id="57" type="priority" x="+7903.140977" y="+5578.829606" />
    <node id="58" type="priority" x="+7915.418042" y="+5885.317749" />
    <node id="59" type="priority" x="+8028.761654" y="+5639.118761" />
    <node id="60" type="priority" x="+8123.908903" y="+6143.355335" />
    <node id="61" type="priority" x="+8176.305660" y="+5659.288224" />
    <node id="62" type="priority" x="+8273.206776" y="+5829.413259" />
    <node id="63" type="priority" x="+8321.218867" y="+5725.058212" />
    <node id="64" type="priority" x="+8403.650585" y="+5748.077708" />
    <node id="65" type="priority" x="+8408.473718" y="+5729.662111" />
    <node id="66" type="priority" x="+6532.713663" y="+5773.728003" />
    <node id="67" type="priority" x="+6539.071429" y="+5708.834948" />
    <node id="68" type="priority" x="+6553.540826" y="+5696.338651" />
    <node id="69" type="priority" x="+6612.953048" y="+5369.023344" />
    <node id="70" type="priority" x="+6633.999444" y="+5227.179404" />
    <node id="71" type="priority" x="+6678.942270" y="+5873.479151" />
    <node id="72" type="priority" x="+6695.604000" y="+5747.420008" />
    <node id="73" type="priority" x="+8718.250360" y="+6030.230956" />
    <node id="74" type="priority" x="+8923.671956" y="+5881.152316" />
    <node id="75" type="priority" x="+9020.573071" y="+5911.187278" />
    <node id="76" type="priority" x="+6838.763340" y="+5286.810859" />
    <node id="77" type="priority" x="+6932.375956" y="+5989.453563" />
    <node id="78" type="priority" x="+6966.357117" y="+5860.982854" />
    <node id="79" type="priority" x="+6971.180249" y="+5845.417290" />
    <node id="80" type="priority" x="+6973.153349" y="+5301.061023" />
    <node id="81" type="priority" x="+7037.169470" y="+5319.915087" />
    <node id="82" type="priority" x="+7043.527236" y="+5347.757715" />
    <node id="83" type="traffic_light_unregulated" x="+5987.480464" y="+5515.690417" />
    <node id="84" type="traffic_light_unregulated" x="+5989.672797" y="+5494.863254" />
    <node id="85" type="priority" x="+6195.752092" y="+5324.957452" />
    <node id="86" type="priority" x="+6244.641116" y="+5165.136382" />
    <node id="87" type="priority" x="+6099.289443" y="+5887.290849" />
    <node id="88" type="priority" x="+3785.939736" y="+5368.584878" />
    <node id="89" type="priority" x="+2164.271068" y="+4957.741687" />
    <node id="90" type="priority" x="+3737.708411" y="+8685.803833" />
    <node id="91" type="priority" x="+9262.606627" y="+5849.801956" />
    <node id="92" type="priority" x="+9267.210526" y="+5860.105920" />
    <node id="93" type="priority" x="+11081.146792" y="+8432.808613" />
    <node id="94" type="priority" x="+8334.811331" y="+6229.733252" />
    <node id="95" type="priority" x="+8344.238363" y="+6254.506614" />
    <node id="96" type="priority" x="+8615.210713" y="+6123.843572" />
    <node id="97" type="priority" x="+8613.018380" y="+6141.820702" />
    <node id="98" type="priority" x="+3977.330401" y="+9885.009946" />
    <node id="100" type="priority" x="+11306.518617" y="+8400.142852" />
    <node id="101" type="priority" x="+3756.343241" y="+8807.478311" />
    <node id="102" type="priority" x="+9093.139291" y="+6239.598750" />
    <node id="103" type="priority" x="+9117.254954" y="+6236.748718" />
    <node id="104" type="priority" x="+9106.950989" y="+6238.064117" />
    <node id="105" type="priority" x="+9483.155320" y="+5770.439504" />
    <node id="106" type="priority" x="+8238.348682" y="+6430.331715" />
    <node id="107" type="priority" x="+8223.440818" y="+6435.593314" />
    <node id="108" type="priority" x="+8568.733255" y="+7960.799333" />
    <node id="109" type="priority" x="+8929.152788" y="+8509.759499" />
    <node id="110" type="priority" x="+9473.947521" y="+9487.978452" />
    <node id="111" type="priority" x="+9010.707573" y="+9970.949396" />
    <node id="112" type="priority" x="+7853.155787" y="+6425.508583" />
    <node id="113" type="priority" x="+7850.086520" y="+6438.662580" />
    <node id="114" type="priority" x="+6872.306034" y="+9571.944803" />
    <node id="115" type="priority" x="+7855.128886" y="+6450.720412" />
    <node id="116" type="priority" x="+9042.715634" y="+9989.803460" />
    <node id="117" type="priority" x="+8180.690326" y="+6301.422539" />
    <node id="118" type="traffic_light_unregulated" x="+8168.851728" y="+6296.818640" />
    <node id="119" type="traffic_light_unregulated" x="+8180.690326" y="+6321.372769" />
    <node id="120" type="traffic_light_unregulated" x="+8186.171159" y="+6289.583941" />
    <node id="121" type="traffic_light_unregulated" x="+8197.352056" y="+6314.138070" />
    <node id="122" type="priority" x="+6320.057369" y="+7519.044248" />
    <node id="123" type="priority" x="+6346.584597" y="+7685.442317" />
    <node id="124" type="priority" x="+8975.411013" y="+5926.095142" />
    <node id="125" type="priority" x="+9203.632871" y="+9710.281011" />
    <node id="126" type="priority" x="+10749.666053" y="+8982.864945" />
    <node id="127" type="priority" x="+9644.730256" y="+8147.366866" />
    <node id="128" type="priority" x="+7378.515707" y="+10794.389645" />
    <node id="129" type="priority" x="+8751.573821" y="+6070.569882" />
    <node id="130" type="priority" x="+8768.454785" y="+6079.777680" />
    <node id="131" type="priority" x="+8228.044717" y="+6301.641772" />
    <node id="132" type="priority" x="+8951.733817" y="+5969.722567" />
    <node id="133" type="priority" x="+8970.368647" y="+5996.907495" />
    <node id="134" type="traffic_light_unregulated" x="+9011.584506" y="+5946.045371" />
    <node id="135" type="traffic_light_unregulated" x="+9031.534736" y="+5965.995601" />
    <node id="136" type="traffic_light_unregulated" x="+9043.811800" y="+5932.452907" />
    <node id="137" type="priority" x="+9049.950333" y="+6020.365458" />
    <node id="138" type="traffic_light_unregulated" x="+9055.431165" y="+5955.472403" />
    <node id="139" type="priority" x="+9068.365929" y="+6003.703727" />
    <node id="140" type="priority" x="+9078.889127" y="+6071.885281" />
    <node id="141" type="priority" x="+9100.812457" y="+5910.091111" />
    <node id="142" type="priority" x="+9115.281854" y="+5930.918274" />
    <node id="143" type="priority" x="+9168.774777" y="+9131.943584" />
    <node id="144" type="priority" x="+8775.470250" y="+6059.169750" />
    <node id="145" type="priority" x="+8218.398453" y="+6373.769526" />
    <node id="146" type="priority" x="+6436.689481" y="+8322.972733" />
    <node id="147" type="priority" x="+9396.777402" y="+9527.659678" />
    <node id="148" type="priority" x="+4977.034216" y="+5317.722754" />
    <node id="149" type="priority" x="+4969.580284" y="+5276.287661" />
    <node id="150" type="priority" x="+5670.249889" y="+4755.389357" />
    <node id="151" type="priority" x="+7040.238736" y="+5016.496209" />
    <node id="152" type="priority" x="+9318.072650" y="+9865.936649" />
    <node id="153" type="priority" x="+7172.217179" y="+4794.412883" />
    <node id="154" type="priority" x="+6345.488431" y="+4575.837290" />
    <node id="155" type="priority" x="+6335.403699" y="+4654.761276" />
    <node id="157" type="priority" x="+6371.138726" y="+4573.864191" />
    <node id="158" type="priority" x="+6149.713100" y="+5734.704477" />
    <node id="159" type="traffic_light_unregulated" x="+6117.705040" y="+5557.344743" />
    <node id="161" type="priority" x="+6367.192527" y="+5766.931771" />
    <node id="162" type="priority" x="+6381.661924" y="+5652.272759" />
    <node id="163" type="priority" x="+7465.770558" y="+6213.509989" />
    <node id="164" type="priority" x="+8184.855759" y="+6310.411104" />
    <node id="167" type="priority" x="+7863.678985" y="+6458.612810" />
    <node id="168" type="priority" x="+10063.246613" y="+9147.947615" />
    <node id="169" type="priority" x="+8995.142009" y="+10005.369023" />
    <node id="170" type="priority" x="+9160.663146" y="+6802.809080" />
    <node id="171" type="priority" x="+6478.124573" y="+8277.372208" />
    <node id="172" type="priority" x="+6623.476246" y="+7453.712727" />
    <node id="174" type="priority" x="+9479.866820" y="+5757.943206" />
    <node id="175" type="priority" x="+9043.811800" y="+5637.584128" />
    <node id="176" type="priority" x="+8231.333217" y="+5514.594251" />
    <node id="177" type="priority" x="+8037.530986" y="+5618.510832" />
    <node id="178" type="priority" x="+7495.367052" y="+5409.800737" />
    <node id="179" type="priority" x="+7584.814236" y="+5228.275570" />
    <node id="180" type="priority" x="+7611.779931" y="+5248.664266" />
    <node id="181" type="priority" x="+7527.375113" y="+5420.762401" />
    <node id="182" type="priority" x="+7286.218491" y="+5183.332745" />
    <node id="183" type="priority" x="+7831.670924" y="+5578.610372" />
    <node id="184" type="priority" x="+6646.276509" y="+5203.502208" />
    <node id="185" type="traffic_light_unregulated" x="+5829.851726" y="+5126.332089" />
    <node id="186" type="traffic_light_unregulated" x="+5812.093829" y="+5080.731564" />
    <node id="187" type="priority" x="+5874.575318" y="+5230.467903" />
    <node id="188" type="priority" x="+6113.101140" y="+5116.028124" />
    <node id="189" type="priority" x="+5941.003005" y="+5382.835042" />
    <node id="190" type="priority" x="+8076.116045" y="+6243.983416" />
    <node id="191" type="priority" x="+8793.228147" y="+5865.148286" />
    <node id="192" type="priority" x="+7651.241924" y="+5771.535670" />
    <node id="193" type="priority" x="+7403.946769" y="+5670.030655" />
    <node id="194" type="priority" x="+7319.980418" y="+5761.889405" />
    <node id="195" type="priority" x="+6693.850133" y="+5764.300971" />
    <node id="196" type="priority" x="+6356.230862" y="+4997.203679" />
    <node id="198" type="priority" x="+5916.229643" y="+7157.747781" />
    <node id="199" type="priority" x="+10927.245020" y="+7023.577006" />
    <node id="200" type="priority" x="+6509.474934" y="+6989.376612" />
    <node id="201" type="priority" x="+3201.244544" y="+5313.338088" />
    <node id="202" type="priority" x="+8396.415886" y="+6832.844041" />
    <node id="203" type="priority" x="+7346.069180" y="+6909.356460" />
    <node id="204" type="priority" x="+3394.827541" y="+5878.959984" />
    <node id="205" type="priority" x="+6459.270510" y="+8281.099174" />
    <node id="206" type="priority" x="+7103.597158" y="+6190.052026" />
    <node id="207" type="priority" x="+9947.052967" y="+5580.583472" />
    <node id="208" type="priority" x="+10778.604848" y="+5751.366207" />
    <node id="209" type="priority" x="+6220.963921" y="+6016.419258" />
    <node id="210" type="priority" x="+8748.285322" y="+4234.052587" />
    <node id="211" type="priority" x="+6125.597438" y="+5896.498647" />
    <node id="212" type="priority" x="+3669.088391" y="+5412.870003" />
    <node id="213" type="priority" x="+3996.403697" y="+4270.664547" />
    <node id="214" type="priority" x="+6260.645147" y="+3218.125507" />
    <node id="215" type="priority" x="+10707.573261" y="+7182.521143" />
    <node id="216" type="priority" x="+4543.171530" y="+4663.749841" />
    <node id="217" type="priority" x="+2562.617961" y="+5268.833729" />
    <node id="218" type="priority" x="+10323.038065" y="+7459.632026" />
    <node id="220" type="priority" x="+7339.711414" y="+6758.743188" />
    <node id="221" type="priority" x="+6215.921555" y="+6086.135445" />
    <node id="222" type="priority" x="+6212.633055" y="+3952.118572" />
    <node id="223" type="priority" x="+6121.212772" y="+6603.745250" />
    <node id="224" type="priority" x="+7306.387954" y="+6658.992040" />
    <node id="225" type="priority" x="+7369.527142" y="+3703.069551" />
    <node id="226" type="priority" x="+2385.258227" y="+5041.050338" />
    <node id="227" type="priority" x="+3215.056241" y="+5356.088580" />
    <node id="228" type="priority" x="+6153.001600" y="+6428.139382" />
    <node id="229" type="priority" x="+7140.428351" y="+6201.671391" />
    <node id="230" type="priority" x="+3219.440907" y="+5369.461811" />
    <node id="232" type="priority" x="+6656.580474" y="+6050.838885" />
    <node id="233" type="priority" x="+7311.868786" y="+6681.134602" />
    <node id="234" type="priority" x="+6195.971325" y="+3929.976009" />
    <node id="235" type="priority" x="+10891.509993" y="+7058.654333" />
    <node id="237" type="priority" x="+4669.011440" y="+5385.465841" />
    <node id="238" type="priority" x="+11129.816583" y="+8469.420573" />
    <node id="239" type="priority" x="+7104.474091" y="+6590.591252" />
    <node id="241" type="priority" x="+3486.905524" y="+5976.957266" />
    <node id="242" type="priority" x="+7329.407450" y="+6674.338370" />
    <node id="244" type="priority" x="+10063.027379" y="+9133.039751" />
    <node id="245" type="priority" x="+6921.633525" y="+6562.090924" />
    <node id="246" type="priority" x="+9966.564730" y="+5574.006473" />
    <node id="247" type="priority" x="+9497.843950" y="+5220.163938" />
    <node id="248" type="priority" x="+6293.091674" y="+7235.137134" />
    <node id="249" type="priority" x="+10911.240990" y="+7197.867474" />
    <node id="250" type="priority" x="+4485.732407" y="+5393.139006" />
    <node id="251" type="priority" x="+6360.615528" y="+4621.437815" />
    <node id="252" type="priority" x="+10473.651337" y="+5342.934582" />
    <node id="253" type="priority" x="+9934.995136" y="+5479.955390" />
    <node id="254" type="priority" x="+6518.244266" y="+4438.816482" />
    <node id="256" type="priority" x="+9192.013507" y="+5393.796706" />
    <node id="257" type="priority" x="+9294.614688" y="+9830.201622" />
    <node id="258" type="priority" x="+6824.732409" y="+3812.466964" />
    <node id="259" type="priority" x="+9405.985200" y="+9574.356369" />
    <node id="260" type="priority" x="+7434.858664" y="+6293.091674" />
    <node id="261" type="priority" x="+4287.983977" y="+5397.742906" />
    <node id="262" type="priority" x="+9620.833828" y="+5770.658737" />
    <node id="263" type="priority" x="+11108.550953" y="+8429.081647" />
    <node id="264" type="priority" x="+3340.019218" y="+5972.791833" />
    <node id="265" type="priority" x="+6208.029156" y="+6082.408479" />
    <node id="266" type="priority" x="+4973.964950" y="+6165.278664" />
    <node id="267" type="priority" x="+9431.416262" y="+5282.206960" />
    <node id="268" type="priority" x="+5862.079020" y="+6529.425164" />
    <node id="269" type="priority" x="+7196.990541" y="+4565.314092" />
    <node id="270" type="priority" x="+6951.449253" y="+4937.352990" />
    <node id="271" type="priority" x="+6843.148006" y="+6109.812641" />
    <node id="272" type="priority" x="+9242.875630" y="+5445.974230" />
    <node id="273" type="priority" x="+8053.535016" y="+7839.563322" />
    <node id="274" type="priority" x="+3490.413257" y="+4694.442502" />
    <node id="275" type="priority" x="+7496.463219" y="+4049.677387" />
    <node id="276" type="priority" x="+7287.314657" y="+6144.670735" />
    <node id="277" type="priority" x="+6694.727067" y="+6522.628932" />
    <node id="278" type="priority" x="+4889.121666" y="+6312.822670" />
    <node id="279" type="priority" x="+5406.950704" y="+4177.490397" />
    <node id="280" type="priority" x="+6365.000194" y="+5874.575318" />
    <node id="281" type="priority" x="+6237.625651" y="+3982.592000" />
    <node id="282" type="priority" x="+3306.038058" y="+5352.800081" />
    <node id="283" type="priority" x="+5803.324498" y="+4041.346522" />
    <node id="284" type="priority" x="+6078.243047" y="+6314.795770" />
    <node id="285" type="priority" x="+3660.099826" y="+5847.609623" />
    <node id="286" type="priority" x="+9096.427791" y="+9246.602596" />
    <node id="287" type="priority" x="+8384.138822" y="+6847.313438" />
    <node id="288" type="priority" x="+6516.709633" y="+4567.506425" />
    <node id="289" type="priority" x="+3379.042744" y="+5883.344649" />
    <node id="290" type="priority" x="+4448.243514" y="+5566.552541" />
    <node id="291" type="priority" x="+3153.232452" y="+5233.317936" />
    <node id="292" type="priority" x="+3675.226923" y="+5707.958015" />
    <node id="293" type="priority" x="+4071.600717" y="+6104.331809" />
    <node id="294" type="priority" x="+7851.182687" y="+6463.435943" />
    <node id="295" type="priority" x="+7315.595752" y="+3695.615619" />
    <node id="296" type="priority" x="+6170.321030" y="+6625.230113" />
    <node id="297" type="priority" x="+8080.062245" y="+7897.440912" />
    <node id="298" type="priority" x="+2588.049023" y="+5194.732876" />
    <node id="299" type="priority" x="+6822.540076" y="+3968.561069" />
    <node id="300" type="priority" x="+5910.091111" y="+7221.106203" />
    <node id="302" type="priority" x="+9968.757063" y="+5217.971605" />
    <node id="303" type="priority" x="+9298.341654" y="+4065.681418" />
    <node id="304" type="priority" x="+7323.268917" y="+6751.727723" />
    <node id="307" type="priority" x="+8592.191217" y="+6124.282038" />
    <node id="309" type="priority" x="+8573.117921" y="+6165.278664" />
    <node id="311" type="priority" x="+9112.870288" y="+9256.906561" />
    <node id="312" type="priority" x="+7287.314657" y="+6623.257013" />
    <node id="313" type="priority" x="+8717.592661" y="+8527.736629" />
    <node id="314" type="priority" x="+7840.659489" y="+6433.400981" />
    <node id="315" type="priority" x="+6656.142007" y="+3345.500050" />
    <node id="316" type="priority" x="+7129.028220" y="+6523.505865" />
    <node id="317" type="priority" x="+6261.083613" y="+7103.597158" />
    <node id="318" type="priority" x="+6312.384204" y="+4424.347085" />
    <node id="319" type="priority" x="+3795.586001" y="+4154.909368" />
    <node id="320" type="priority" x="+4674.711505" y="+5440.712631" />
    <node id="321" type="priority" x="+7201.594440" y="+4508.532669" />
    <node id="322" type="priority" x="+8771.962517" y="+4188.890528" />
    <node id="323" type="priority" x="+5134.443721" y="+5433.697166" />
    <node id="324" type="priority" x="+5040.392638" y="+5115.589658" />
    <node id="325" type="priority" x="+5911.844978" y="+6125.597438" />
    <node id="326" type="priority" x="+9919.868039" y="+5481.051557" />
    <node id="327" type="priority" x="+6226.444753" y="+3924.056710" />
    <node id="328" type="priority" x="+4735.658361" y="+5332.630618" />
    <node id="329" type="priority" x="+5946.264604" y="+5853.528922" />
    <node id="330" type="priority" x="+9128.435852" y="+5297.553291" />
    <node id="331" type="priority" x="+5452.770462" y="+4159.732500" />
    <node id="332" type="priority" x="+7324.803551" y="+6651.538108" />
    <node id="333" type="priority" x="+6506.186435" y="+6003.046027" />
    <node id="334" type="priority" x="+6368.727160" y="+7767.435569" />
    <node id="335" type="priority" x="+4904.029530" y="+6306.026438" />
    <node id="336" type="priority" x="+5832.263292" y="+7274.160660" />
    <node id="338" type="priority" x="+6801.493680" y="+6096.658643" />
    <node id="339" type="priority" x="+6816.840011" y="+4410.535387" />
    <node id="340" type="priority" x="+3359.311748" y="+5774.604936" />
    <node id="341" type="priority" x="+5880.056150" y="+6376.400325" />
    <node id="342" type="priority" x="+4887.587033" y="+7664.176688" />
    <node id="343" type="priority" x="+5912.064211" y="+4001.007596" />
    <node id="344" type="priority" x="+7547.325343" y="+6327.511301" />
    <node id="345" type="priority" x="+5508.674952" y="+4386.638959" />
    <node id="347" type="priority" x="+6609.006849" y="+6507.721068" />
    <node id="348" type="priority" x="+5606.453000" y="+4608.941518" />
    <node id="349" type="priority" x="+8401.239019" y="+6845.121106" />
    <node id="350" type="priority" x="+7222.202369" y="+4509.848069" />
    <node id="351" type="priority" x="+8275.837575" y="+3846.667358" />
    <node id="352" type="priority" x="+5761.012472" y="+3595.864471" />
    <node id="353" type="priority" x="+2806.405383" y="+4215.417757" />
    <node id="355" type="priority" x="+5916.229643" y="+7141.086051" />
    <node id="356" type="priority" x="+9145.097582" y="+9149.482248" />
    <node id="357" type="priority" x="+3629.407165" y="+5997.565195" />
    <node id="358" type="priority" x="+8426.450848" y="+4829.928677" />
    <node id="359" type="priority" x="+6301.422539" y="+3910.464246" />
    <node id="360" type="priority" x="+11076.323659" y="+8912.710291" />
    <node id="361" type="priority" x="+9361.919309" y="+5585.845071" />
    <node id="362" type="priority" x="+6082.408479" y="+5938.810673" />
    <node id="363" type="priority" x="+5927.191308" y="+4698.607934" />
    <node id="364" type="priority" x="+5111.204992" y="+6357.765495" />
    <node id="365" type="priority" x="+2930.491427" y="+3450.512798" />
    <node id="366" type="priority" x="+6381.004224" y="+3903.448781" />
    <node id="367" type="priority" x="+6206.494523" y="+3927.783676" />
    <node id="368" type="priority" x="+8776.347183" y="+6817.716944" />
    <node id="369" type="priority" x="+7447.135728" y="+6600.018284" />
    <node id="370" type="priority" x="+2620.934017" y="+5147.597718" />
    <node id="371" type="priority" x="+7248.948831" y="+6235.652551" />
    <node id="372" type="priority" x="+4801.866815" y="+5524.678982" />
    <node id="373" type="priority" x="+4128.820606" y="+5959.637835" />
    <node id="374" type="priority" x="+7244.344932" y="+6708.757997" />
    <node id="375" type="priority" x="+6758.523955" y="+6319.838136" />
    <node id="377" type="priority" x="+6373.550292" y="+6466.724442" />
    <node id="378" type="priority" x="+9595.621999" y="+5722.646646" />
    <node id="379" type="priority" x="+5412.212303" y="+4182.313529" />
    <node id="380" type="priority" x="+2329.572971" y="+5549.671578" />
    <node id="381" type="priority" x="+5101.997193" y="+5310.488055" />
    <node id="90381" type="priority" x="+5086.212396" y="+5310.488055" />
    <node id="382" type="priority" x="+6128.885938" y="+3504.005721" />
    <node id="383" type="priority" x="+7102.062525" y="+3921.645144" />
    <node id="384" type="priority" x="+4096.374079" y="+5342.057649" />
    <node id="385" type="priority" x="+7200.279040" y="+6351.846196" />
    <node id="386" type="priority" x="+7477.389922" y="+6615.145381" />
    <node id="387" type="priority" x="+6202.767557" y="+6117.485806" />
    <node id="388" type="priority" x="+6098.631743" y="+6400.296754" />
    <node id="389" type="priority" x="+6208.248390" y="+3934.360675" />
    <node id="390" type="priority" x="+9907.371741" y="+5595.710569" />
    <node id="391" type="priority" x="+10204.213620" y="+4940.203023" />
    <node id="392" type="priority" x="+5461.759027" y="+4149.428536" />
    <node id="393" type="priority" x="+3335.415319" y="+5950.210804" />
    <node id="394" type="priority" x="+5860.325154" y="+4324.376703" />
    <node id="395" type="priority" x="+10480.666802" y="+7339.053715" />
    <node id="396" type="priority" x="+9095.112391" y="+6250.560415" />
    <node id="397" type="priority" x="+6153.440066" y="+6444.801113" />
    <node id="398" type="priority" x="+2761.024091" y="+6056.319718" />
    <node id="399" type="priority" x="+3255.175934" y="+5374.942643" />
    <node id="400" type="priority" x="+6145.109201" y="+6066.623682" />
    <node id="401" type="priority" x="+4552.817795" y="+4641.388045" />
    <node id="402" type="priority" x="+11344.665210" y="+8855.709635" />
    <node id="403" type="priority" x="+9225.556200" y="+4724.477463" />
    <node id="404" type="priority" x="+7098.116326" y="+4067.435284" />
    <node id="405" type="priority" x="+3180.198147" y="+5310.268822" />
    <node id="406" type="priority" x="+9819.459191" y="+5053.985102" />
    <node id="407" type="priority" x="+6820.347743" y="+6125.597438" />
    <node id="408" type="priority" x="+7835.836356" y="+4724.696696" />
    <node id="409" type="priority" x="+10813.024475" y="+7108.201057" />
    <node id="410" type="priority" x="+2762.120258" y="+6064.212116" />
    <node id="411" type="priority" x="+6392.842822" y="+3895.994849" />
    <node id="412" type="priority" x="+9911.537174" y="+5577.075739" />
    <node id="413" type="priority" x="+9056.965798" y="+4463.809078" />
    <node id="414" type="priority" x="+4801.209115" y="+5418.789302" />
    <node id="416" type="priority" x="+4683.919304" y="+5540.902246" />
    <node id="417" type="priority" x="+3382.988943" y="+5344.469215" />
    <node id="418" type="priority" x="+10927.025787" y="+7315.157286" />
    <node id="419" type="priority" x="+2345.357768" y="+5511.086518" />
    <node id="420" type="priority" x="+5132.689854" y="+5416.816202" />
    <node id="421" type="priority" x="+10754.927652" y="+8998.649742" />
    <node id="422" type="priority" x="+3080.885466" y="+5293.826325" />
    <node id="423" type="priority" x="+7705.173314" y="+3660.538292" />
    <node id="424" type="priority" x="+9957.137699" y="+5533.009847" />
    <node id="425" type="priority" x="+8388.523488" y="+3638.176496" />
    <node id="426" type="priority" x="+10849.636434" y="+7073.123730" />
    <node id="427" type="priority" x="+2895.852566" y="+4433.335650" />