<!--<?xml version="1.0" encoding="UTF-8"?>
<edges xmlns:xsi="http://www.w3.org/2001/XMLSchema-instance" xsi:noNamespaceSchemaLocation="http://sumo.sf.net/xsd/edges_file.xsd">-->
<edges>
    <edge id="L2" from="52" to="55" type="1_lane"/>
    <edge id="L3" from="2" to="9" type="1_lane"/>
    <edge id="L4" from="20" to="194" type="4_lane"/>
    <edge id="L5" from="135" to="138" type="4_lane"/>
    <edge id="L6" from="92" to="105" type="5_lane"/>
    <edge id="L7" from="94" to="120" type="5_lane"/>
    <edge id="L8" from="86" to="42" type="2_lane"/>
    <edge id="L21" from="185" to="188" type="1_lane"/>
    <edge id="L24" from="26" to="48" type="1_lane"/>
    <edge id="L25" from="21" to="14" type="4_lane"/>
    <edge id="L27" from="133" to="135" type="4_lane"/>
    <edge id="L30" from="47" to="39" type="4_lane"/>
    <edge id="L33" from="103" to="3000" type="2_lane"/>
    <edge id="L37" from="81" to="80" type="4_lane"/>
    <edge id="L38" from="51" to="56" type="1_lane"/>
    <edge id="L39" from="196" to="157" type="3_lane"/>
    <edge id="L40" from="154" to="47" type="4_lane"/>
    <edge id="L41" from="50" to="192" type="1_lane"/>
    <edge id="L42" from="48" to="50" type="1_lane"/>
    <edge id="L44" from="83" to="84" type="1_lane"/>
    <edge id="L45" from="22" to="49" type="4_lane"/>
    <edge id="L47" from="66" to="67" type="1_lane"/>
    <edge id="L48" from="161" to="162" type="1_lane"/>
    <edge id="L49" from="68" to="44" type="3_lane"/>
    <edge id="L50" from="15" to="17" type="3_lane"/>
    <edge id="L51" from="97" to="130" type="5_lane"/>
    <edge id="L52" from="118" to="112" type="5_lane"/>
    <edge id="L53" from="12" to="17" type="5_lane"/>
    <edge id="L54" from="15" to="10" type="5_lane"/>
    <edge id="L58#1" from="39" to="186.39" type="2_lane"/>
    <edge id="L58#2" from="186.39" to="186" type="3_lane"/>
    <edge id="L60" from="185" to="187" type="2_lane"/>
    <edge id="L61" from="139" to="138" type="5_lane"/>
    <edge id="L64" from="31" to="43" type="4_lane"/>
    <edge id="L67" from="329" to="83" type="2_lane"/>
    <edge id="L68" from="186" to="150" type="2_lane"/>
    <edge id="L69" from="5" to="188" type="1_lane"/>
    <edge id="L70" from="194" to="16" type="5_lane"/>
    <edge id="L72" from="47" to="196" type="4_lane"/>
    <edge id="L73" from="187" to="189" type="2_lane"/>
    <edge id="L74" from="17" to="18" type="5_lane"/>
    <edge id="L75" from="195" to="71" type="1_lane"/>
    <edge id="L76" from="77" to="78" type="2_lane"/>
    <edge id="L77" from="62" to="73" type="1_lane"/>
    <edge id="L78" from="129" to="73" type="1_lane"/>
    <edge id="L79" from="8" to="34" type="1_lane"/>
    <edge id="L80" from="58" to="192" type="2_lane"/>
    <edge id="L81" from="60" to="54" type="1_lane"/>
    <edge id="L82" from="60" to="62" type="1_lane"/>
    <edge id="L83" from="18" to="37" type="4_lane"/>
    <edge id="L85" from="43" to="44" type="4_lane"/>
    <edge id="L86" from="134" to="135" type="4_lane"/>
    <edge id="L89" from="136" to="134" type="3_lane"/>
    <edge id="L91" from="21" to="20" type="4_lane"/>
    <edge id="L95" from="23" to="21" type="4_lane"/>
    <edge id="L96" from="23" to="181" type="4_lane"/>
    <edge id="L97" from="178" to="21" type="4_lane"/>
    <edge id="L98" from="181" to="180" type="4_lane"/>
    <edge id="L103" from="11" to="182" type="1_lane"/>
    <edge id="L105" from="80" to="151" type="1_lane"/>
    <edge id="L106" from="81" to="153" type="1_lane"/>
    <edge id="L115" from="61" to="176" type="1_lane"/>
    <edge id="L118" from="121" to="131" type="3_lane"/>
    <edge id="L119" from="131" to="95" type="3_lane"/>
    <edge id="L120" from="129" to="96" type="5_lane"/>
    <edge id="L126" from="140" to="139" type="4_lane"/>
    <edge id="L129" from="30" to="33" type="2_lane"/>
    <edge id="L131" from="3000" to="140" type="2_lane"/>
    <edge id="L132" from="32" to="84" type="3_lane"/>
    <!--<edge id="L133" from="6" to="43" type="3_lane"/>-->
    <edge id="L133" from="6" to="43" type="3_lane">
	    <split pos="25" lanes="0 1 2 3"/>
    </edge>
    <edge id="L134" from="44" to="7" type="3_lane"/>
    <edge id="L135" from="43" to="162" type="3_lane"/>
    <edge id="L136" from="106" to="145" type="5_lane"/>
    <edge id="L137" from="72" to="68" type="3_lane"/>
    <edge id="L138" from="83" to="159" type="3_lane"/>
    <edge id="L139" from="27" to="195" type="3_lane"/>
    <edge id="L140#1" from="162" to="67.162" type="3_lane"/>
    <edge id="L140#2" from="67.162" to="67" type="4_lane"/>
    <edge id="L141" from="2" to="79" type="3_lane"/>
    <edge id="L142" from="79" to="72" type="3_lane"/>
    <edge id="L143" from="78" to="15" type="3_lane"/>
    <edge id="L144" from="195" to="78" type="3_lane"/>
    <edge id="L145" from="17" to="28" type="3_lane"/>
    <edge id="L146" from="18" to="16" type="3_lane"/>
    <edge id="L147" from="60" to="190" type="1_lane"/>
    <edge id="L148" from="24" to="18" type="3_lane"/>
    <edge id="L151" from="53" to="24" type="3_lane"/>
    <edge id="L152" from="53" to="54" type="1_lane"/>
    <edge id="L153" from="190" to="53" type="3_lane"/>
    <edge id="L154" from="120" to="190" type="3_lane"/>
    <edge id="L155" from="25" to="55" type="3_lane"/>
    <edge id="L156" from="177" to="59" type="1_lane"/>
    <edge id="L157" from="57" to="56" type="2_lane"/>
    <edge id="L158" from="37" to="193" type="4_lane"/>
    <edge id="L160" from="65" to="61" type="4_lane"/>
    <edge id="L161" from="59" to="63" type="4_lane"/>
    <edge id="L162" from="64" to="191" type="4_lane"/>
    <edge id="L167" from="54" to="58" type="1_lane"/>
    <edge id="L169" from="20" to="22" type="4_lane"/>
    <edge id="L170" from="309" to="97" type="3_lane"/>
    <edge id="L173" from="177" to="57" type="4_lane"/>
    <edge id="L174" from="56" to="59" type="4_lane"/>
    <edge id="L176" from="145" to="121" type="4_lane"/>
    <edge id="L177" from="159" to="6" type="3_lane"/>
    <edge id="L179" from="68" to="69" type="1_lane"/>
    <edge id="L181" from="76" to="82" type="4_lane"/>
    <edge id="L182" from="70" to="76" type="4_lane"/>
    <edge id="L183" from="76" to="72" type="1_lane"/>
    <edge id="L184" from="91" to="141" type="3_lane"/>
    <edge id="L185" from="67" to="27" type="3_lane"/>
    <edge id="L190" from="73" to="191" type="1_lane"/>
    <edge id="L192" from="70" to="69" type="1_lane"/>
    <edge id="L193#1" from="80" to="184.80" type="4_lane"/>
    <edge id="L193#2" from="184.80" to="184" type="5_lane"/>
    <edge id="L194" from="188" to="40" type="1_lane"/>
    <edge id="L196" from="134" to="132" type="2_lane"/>
    <edge id="L197#1" from="184" to="47.184" type="4_lane"/>
    <edge id="L197#2" from="47.184" to="47" type="5_lane"/>
    <edge id="L201" from="51" to="50" type="1_lane"/>
    <edge id="L202" from="63" to="62" type="1_lane"/>
    <edge id="L205" from="26" to="192" type="1_lane"/>
    <edge id="L207" from="32" to="159" type="1_lane"/>
    <edge id="L208" from="7" to="32" type="3_lane"/>
    <edge id="L209" from="187" to="5" type="1_lane"/>
    <edge id="L210" from="1" to="142" type="3_lane"/>
    <edge id="L211" from="138" to="136" type="3_lane"/>
    <edge id="L214" from="191" to="124" type="5_lane"/>
    <edge id="L220" from="38" to="22" type="5_lane"/>
    <edge id="L221" from="28" to="25" type="3_lane"/>
    <edge id="L225" from="136" to="75" type="3_lane"/>
    <edge id="L226" from="174" to="91" type="4_lane"/>
    <edge id="L227" from="139" to="1" type="1_lane"/>
    <edge id="L228" from="124" to="132" type="1_lane"/>
    <edge id="L229" from="141" to="75" type="1_lane"/>
    <edge id="L230" from="193" to="38" type="4_lane"/>
    <edge id="L231" from="16" to="15" type="5_lane"/>
    <edge id="L232" from="40" to="30" type="5_lane"/>
    <edge id="L233" from="67" to="68" type="1_lane"/>
    <edge id="L237" from="14" to="11" type="4_lane"/>
    <edge id="L239" from="42" to="46" type="4_lane"/>
    <edge id="L240" from="13" to="20" type="5_lane"/>
    <edge id="L241" from="63" to="64" type="4_lane"/>
    <edge id="L242" from="49" to="48" type="1_lane"/>
    <edge id="L243" from="82" to="13" type="5_lane"/>
    <edge id="L244" from="6" to="7" type="1_lane"/>
    <edge id="L245" from="61" to="177" type="4_lane"/>
    <edge id="L246" from="51" to="183" type="1_lane"/>
    <edge id="L247" from="183" to="56" type="4_lane"/>
    <edge id="L248" from="119" to="121" type="3_lane"/>
    <edge id="L249" from="30" to="42" type="4_lane"/>
    <edge id="L250" from="11" to="81" type="4_lane"/>
    <edge id="L251" from="78" to="79" type="1_lane"/>
    <edge id="L252" from="133" to="132" type="1_lane"/>
    <edge id="L253" from="24" to="28" type="1_lane"/>
    <edge id="L254" from="120" to="118" type="4_lane"/>
    <edge id="L257" from="145" to="131" type="1_lane"/>
    <edge id="L263" from="133" to="137" type="2_lane"/>
    <edge id="L265" from="117" to="113" type="2_lane"/>
    <edge id="L266" from="130" to="133" type="3_lane"/>
    <edge id="L268" from="193" to="26" type="1_lane"/>
    <edge id="L269" from="58" to="59" type="1_lane"/>
    <edge id="L270" from="142" to="92" type="3_lane"/>
    <edge id="L271" from="24" to="192" type="1_lane"/>
    <edge id="L272" from="25" to="163" type="1_lane"/>
    <edge id="L273" from="94" to="95" type="1_lane"/>
    <edge id="L274" from="65" to="64" type="1_lane"/>
    <edge id="L275" from="178" to="181" type="1_lane"/>
    <edge id="L277" from="46" to="47" type="3_lane"/>
    <edge id="L278" from="137" to="102" type="3_lane"/>
    <edge id="L279" from="104" to="140" type="3_lane"/>
    <edge id="L504" from="283" to="394" type="2_lane"/>
    <edge id="L507" from="256" to="175" type="1_lane"/>
    <edge id="L508" from="358" to="210" type="2_lane"/>
    <edge id="L509" from="316" to="239" type="2_lane"/>
    <edge id="L510" from="247" to="521" type="1_lane"/>
    <edge id="L511" from="176" to="538" type="1_lane"/>
    <edge id="L512" from="458" to="280" type="1_lane"/>
    <edge id="L513" from="352" to="343" type="1_lane"/>
    <edge id="L516" from="321" to="269" type="1_lane"/>
    <edge id="L518" from="408" to="350" type="1_lane"/>
    <edge id="L520" from="270" to="153" type="1_lane"/>
    <edge id="L521" from="439" to="345" type="2_lane"/>
    <edge id="L522" from="348" to="345" type="2_lane"/>
    <edge id="L523" from="348" to="150" type="2_lane"/>
    <edge id="L524" from="258" to="299" type="2_lane"/>
    <edge id="L525" from="366" to="254" type="2_lane"/>
    <edge id="L526" from="383" to="404" type="2_lane"/>
    <edge id="L527" from="254" to="288" type="1_lane"/>
    <edge id="L528" from="322" to="210" type="2_lane"/>
    <edge id="L529" from="423" to="275" type="2_lane"/>
    <edge id="L530" from="404" to="508" type="2_lane"/>
    <edge id="L531" from="508" to="452" type="1_lane"/>
    <edge id="L532" from="476" to="383" type="2_lane"/>
    <edge id="L533" from="361" to="174" type="1_lane"/>
    <edge id="L534" from="339" to="299" type="2_lane"/>
    <edge id="L535" from="330" to="256" type="1_lane"/>
    <edge id="L536" from="256" to="272" type="1_lane"/>
    <edge id="L537" from="272" to="361" type="1_lane"/>
    <edge id="L538" from="413" to="403" type="1_lane"/>
    <edge id="L540" from="491" to="403" type="1_lane"/>
    <edge id="L543" from="403" to="515" type="1_lane"/>
    <edge id="L544" from="379" to="439" type="2_lane"/>
    <edge id="L545" from="541" to="322" type="2_lane"/>
    <edge id="L547" from="77" to="456" type="2_lane"/>
    <edge id="L548" from="303" to="413" type="1_lane"/>
    <edge id="L550" from="397" to="296" type="2_lane"/>
    <edge id="L551" from="529" to="295" type="2_lane"/>
    <edge id="L552" from="295" to="444" type="2_lane"/>
    <edge id="L553" from="385" to="316" type="1_lane"/>
    <edge id="L556" from="3" to="362" type="3_lane"/>
    <edge id="L558" from="389" to="222" type="4_lane"/>
    <edge id="L560" from="485" to="206" type="4_lane"/>
    <edge id="L561" from="163" to="260" type="1_lane"/>
    <edge id="L565" from="437" to="318" type="3_lane"/>
    <edge id="L567" from="378" to="262" type="1_lane"/>
    <edge id="L568" from="473" to="408" type="4_lane"/>
    <edge id="L569" from="351" to="473" type="4_lane"/>
    <edge id="L570" from="318" to="154" type="3_lane"/>
    <edge id="L571" from="506" to="326" type="2_lane"/>
    <edge id="L572" from="222" to="155" type="3_lane"/>
    <edge id="L574" from="496" to="155" type="3_lane"/>
    <edge id="L575" from="222" to="437" type="3_lane"/>
    <edge id="L578" from="442" to="179" type="4_lane"/>
    <edge id="L579" from="408" to="442" type="4_lane"/>
    <edge id="L582" from="253" to="500" type="3_lane"/>
    <edge id="L585" from="506" to="253" type="2_lane"/>
    <edge id="L586" from="1393" to="430" type="4_lane"/>
    <edge id="L587" from="430" to="207" type="4_lane"/>
    <edge id="L588" from="207" to="424" type="3_lane"/>
    <edge id="L590" from="233" to="304" type="3_lane"/>
    <edge id="L591" from="325" to="517" type="4_lane"/>
    <edge id="L593" from="497" to="367" type="3_lane"/>
    <edge id="L594" from="425" to="351" type="4_lane"/>
    <edge id="L596" from="10" to="485" type="5_lane"/>
    <edge id="L597" from="71" to="232" type="1_lane"/>
    <edge id="L599" from="214" to="496" type="3_lane"/>
    <edge id="L600" from="485" to="440" type="2_lane"/>
    <edge id="L601" from="451" to="221" type="2_lane"/>
    <edge id="L602" from="221" to="209" type="2_lane"/>
    <edge id="L603" from="388" to="546" type="4_lane"/>
    <edge id="L605" from="517" to="341" type="4_lane"/>
    <edge id="L606" from="329" to="325" type="4_lane"/>
    <edge id="L607" from="347" to="540" type="1_lane"/>
    <edge id="L608" from="428" to="493" type="2_lane"/>
    <edge id="L609" from="397" to="451" type="2_lane"/>
    <edge id="L610" from="245" to="459" type="1_lane"/>
    <edge id="L611" from="400" to="432" type="1_lane"/>
    <edge id="L612" from="294" to="528" type="3_lane"/>
    <edge id="L614" from="220" to="242" type="4_lane"/>
    <edge id="L616" from="228" to="397" type="4_lane"/>
    <edge id="L617" from="387" to="463" type="2_lane"/>
    <edge id="L618" from="277" to="375" type="4_lane"/>
    <edge id="L619" from="375" to="441" type="4_lane"/>
    <edge id="L620" from="441" to="407" type="4_lane"/>
    <edge id="L621" from="281" to="519" type="1_lane"/>
    <edge id="L623" from="467" to="281" type="4_lane"/>
    <edge id="L625" from="487" to="454" type="4_lane"/>
    <edge id="L626" from="153" to="269" type="1_lane"/>
    <edge id="L627" from="503" to="468" type="3_lane"/>
    <edge id="L629" from="251" to="467" type="3_lane"/>
    <edge id="L632" from="281" to="431" type="3_lane"/>
    <edge id="L633" from="251" to="503" type="3_lane"/>
    <edge id="L634" from="460" to="424" type="1_lane"/>
    <edge id="L635" from="455" to="377" type="1_lane"/>
    <edge id="L636" from="157" to="467" type="3_lane"/>
    <edge id="L637" from="180" to="487" type="4_lane"/>
    <edge id="L645" from="499" to="526" type="4_lane"/>
    <edge id="L646" from="463" to="228" type="2_lane"/>
    <edge id="L647" from="454" to="530" type="4_lane"/>
    <edge id="L648" from="407" to="338" type="2_lane"/>
    <edge id="L650" from="229" to="440" type="4_lane"/>
    <edge id="L651" from="333" to="464" type="1_lane"/>
    <edge id="L652" from="440" to="12" type="4_lane"/>
    <edge id="L655" from="464" to="66" type="1_lane"/>
    <edge id="L657" from="327" to="537" type="3_lane"/>
    <edge id="L658" from="265" to="387" type="2_lane"/>
    <edge id="L659" from="209" to="265" type="2_lane"/>
    <edge id="L662" from="223" to="211" type="3_lane"/>
    <edge id="L664" from="220" to="507" type="2_lane"/>
    <edge id="L665" from="518" to="167" type="4_lane"/>
    <edge id="L666" from="321" to="350" type="1_lane"/>
    <edge id="L668" from="504" to="363" type="1_lane"/>
    <edge id="L669" from="254" to="339" type="2_lane"/>
    <edge id="L670" from="348" to="504" type="1_lane"/>
    <edge id="L671" from="176" to="180" type="1_lane"/>
    <edge id="L672" from="345" to="394" type="1_lane"/>
    <edge id="L673" from="275" to="404" type="2_lane"/>
    <edge id="L674" from="492" to="154" type="1_lane"/>
    <edge id="L675" from="157" to="288" type="1_lane"/>
    <edge id="L677" from="299" to="383" type="2_lane"/>
    <edge id="L678" from="350" to="442" type="2_lane"/>
    <edge id="L679" from="491" to="515" type="1_lane"/>
    <edge id="L680" from="52" to="344" type="2_lane"/>
    <edge id="L681" from="275" to="473" type="2_lane"/>
    <edge id="L683" from="210" to="413" type="1_lane"/>
    <edge id="L684" from="330" to="267" type="1_lane"/>
    <edge id="L686" from="487" to="358" type="1_lane"/>
    <edge id="L687" from="322" to="454" type="2_lane"/>
    <edge id="L688" from="267" to="247" type="1_lane"/>
    <edge id="L689" from="515" to="406" type="1_lane"/>
    <edge id="L690" from="358" to="538" type="1_lane"/>
    <edge id="L692" from="371" to="229" type="2_lane"/>
    <edge id="L693" from="366" to="436" type="2_lane"/>
    <edge id="L694" from="258" to="476" type="2_lane"/>
    <edge id="L695" from="423" to="351" type="2_lane"/>
    <edge id="L696" from="260" to="371" type="2_lane"/>
    <edge id="L698" from="436" to="258" type="2_lane"/>
    <edge id="L699" from="225" to="423" type="2_lane"/>
    <edge id="L700" from="271" to="338" type="2_lane"/>
    <edge id="L701" from="456" to="271" type="2_lane"/>
    <edge id="L702" from="315" to="476" type="1_lane"/>
    <edge id="L703" from="229" to="206" type="2_lane"/>
    <edge id="L704" from="517" to="284" type="1_lane"/>
    <edge id="L706" from="284" to="463" type="1_lane"/>
    <edge id="L707" from="245" to="239" type="2_lane"/>
    <edge id="L709" from="277" to="245" type="2_lane"/>
    <edge id="L710" from="239" to="428" type="2_lane"/>
    <edge id="L713" from="150" to="363" type="1_lane"/>
    <edge id="L714" from="491" to="247" type="1_lane"/>
    <edge id="L715" from="175" to="361" type="1_lane"/>
    <edge id="L716" from="288" to="270" type="1_lane"/>
    <edge id="L717" from="508" to="339" type="2_lane"/>
    <edge id="L718" from="492" to="394" type="1_lane"/>
    <edge id="L720" from="538" to="330" type="1_lane"/>
    <edge id="L723" from="12" to="276" type="1_lane"/>
    <edge id="L724" from="444" to="476" type="2_lane"/>
    <edge id="L725" from="444" to="225" type="2_lane"/>
    <edge id="L727" from="206" to="456" type="2_lane"/>
    <edge id="L728" from="66" to="161" type="1_lane"/>
    <edge id="L729" from="344" to="260" type="2_lane"/>
    <edge id="L731" from="507" to="386" type="4_lane"/>
    <edge id="L732" from="367" to="234" type="2_lane"/>
    <edge id="L733" from="400" to="265" type="1_lane"/>
    <edge id="L734" from="374" to="304" type="1_lane"/>
    <edge id="L738" from="433" to="374" type="5_lane"/>
    <edge id="L739" from="379" to="331" type="2_lane"/>
    <edge id="L742" from="407" to="271" type="2_lane"/>
    <edge id="L743" from="276" to="163" type="1_lane"/>
    <edge id="L744" from="452" to="269" type="1_lane"/>
    <edge id="L753" from="331" to="283" type="2_lane"/>
    <edge id="L755" from="505" to="390" type="7_lane"/>
    <edge id="L757" from="374" to="233" type="5_lane"/>
    <edge id="L758" from="359" to="327" type="2_lane"/>
    <edge id="L760" from="343" to="392" type="3_lane"/>
    <edge id="L761" from="280" to="464" type="1_lane"/>
    <edge id="L762" from="283" to="389" type="2_lane"/>
    <edge id="L763" from="234" to="343" type="2_lane"/>
    <edge id="L765" from="392" to="279" type="3_lane"/>
    <edge id="L766" from="519" to="366" type="2_lane"/>
    <edge id="L768" from="362" to="400" type="1_lane"/>
    <edge id="L769" from="386" to="294" type="4_lane"/>
    <edge id="L771" from="316" to="375" type="1_lane"/>
    <edge id="L772" from="221" to="441" type="2_lane"/>
    <edge id="L773" from="432" to="325" type="1_lane"/>
    <edge id="L774" from="441" to="385" type="1_lane"/>
    <edge id="L775" from="377" to="347" type="3_lane"/>
    <edge id="L776" from="428" to="224" type="3_lane"/>
    <edge id="L777" from="347" to="277" type="3_lane"/>
    <edge id="L778" from="341" to="228" type="3_lane"/>
    <edge id="L779" from="451" to="377" type="2_lane"/>
    <edge id="L780" from="242" to="507" type="4_lane"/>
    <edge id="L785" from="459" to="531" type="3_lane"/>
    <edge id="L786" from="493" to="459" type="3_lane"/>
    <edge id="L788" from="312" to="428" type="1_lane"/>
    <edge id="L789" from="321" to="452" type="1_lane"/>
    <edge id="L790" from="412" to="521" type="4_lane"/>
    <edge id="L792" from="436" to="534" type="1_lane"/>
    <edge id="L793" from="10" to="77" type="2_lane"/>
    <edge id="L794" from="333" to="458" type="4_lane"/>
    <edge id="L797" from="252" to="460" type="4_lane"/>
    <edge id="L798" from="411" to="359" type="2_lane"/>
    <edge id="L801" from="232" to="333" type="4_lane"/>
    <edge id="L802" from="464" to="71" type="1_lane"/>
    <edge id="L803" from="490" to="332" type="5_lane"/>
    <edge id="L804" from="338" to="232" type="4_lane"/>
    <edge id="L806" from="332" to="312" type="2_lane"/>
    <edge id="L809" from="490" to="312" type="1_lane"/>
    <edge id="L810" from="224" to="493" type="3_lane"/>
    <edge id="L813" from="367" to="389" type="2_lane"/>
    <edge id="L814" from="262" to="3100" type="1_lane"/>
    <edge id="L816" from="268" to="341" type="2_lane"/>
    <edge id="L817" from="224" to="233" type="3_lane"/>
    <edge id="L818" from="363" to="492" type="1_lane"/>
    <edge id="L819" from="394" to="504" type="2_lane"/>
    <edge id="L821" from="314" to="294" type="2_lane"/>
    <edge id="L822" from="431" to="327" type="3_lane"/>
    <edge id="L824" from="242" to="332" type="3_lane"/>
    <edge id="L825" from="167" to="112" type="2_lane"/>
    <edge id="L826" from="233" to="242" type="5_lane"/>
    <edge id="L828" from="327" to="367" type="2_lane"/>
    <edge id="L834" from="294" to="167" type="3_lane"/>
    <edge id="L838" from="390" to="207" type="6_lane"/>
    <edge id="L841" from="351" to="454" type="2_lane"/>
    <edge id="L842" from="332" to="224" type="5_lane"/>
    <edge id="L843" from="379" to="279" type="2_lane"/>
    <edge id="L844" from="112" to="314" type="2_lane"/>
    <edge id="L846" from="458" to="31" type="4_lane"/>
    <edge id="L848" from="225" to="295" type="1_lane"/>
    <edge id="L850" from="31" to="3" type="4_lane"/>
    <edge id="L1006" from="292" to="285" type="2_lane"/>
    <edge id="L1007" from="212" to="292" type="2_lane"/>
    <edge id="L1012" from="417" to="201" type="4_lane"/>
    <edge id="L1013" from="230" to="399" type="2_lane"/>
    <edge id="L1014" from="399" to="470" type="3_lane"/>
    <edge id="L1018" from="353" to="291" type="4_lane"/>
    <edge id="L1019" from="429" to="353" type="4_lane"/>
    <edge id="L1022" from="514" to="479" type="4_lane"/>
    <edge id="L1023" from="457" to="514" type="4_lane"/>
    <edge id="L1031" from="401" to="548" type="3_lane"/>
    <edge id="L1033" from="319" to="213" type="3_lane"/>
    <edge id="L1035" from="289" to="393" type="5_lane"/>
    <edge id="L1036" from="293" to="357" type="3_lane"/>
    <edge id="L1038" from="479" to="289" type="4_lane"/>
    <edge id="L1039" from="511" to="462" type="4_lane"/>
    <edge id="L1041" from="278" to="448" type="2_lane"/>
    <edge id="L1043" from="357" to="474" type="4_lane"/>
    <edge id="L1044" from="204" to="340" type="4_lane"/>
    <edge id="L1045" from="323" to="483" type="3_lane"/>
    <edge id="L1046" from="448" to="466" type="2_lane"/>
    <edge id="L1047" from="466" to="511" type="2_lane"/>
    <edge id="L1048" from="364" to="448" type="3_lane"/>
    <edge id="L1049" from="511" to="364" type="3_lane"/>
    <edge id="L1055" from="282" to="470" type="1_lane"/>
    <edge id="L1056" from="457" to="230" type="3_lane"/>
    <edge id="L1059" from="417" to="282" type="2_lane"/>
    <edge id="L1062" from="481" to="422" type="1_lane"/>
    <edge id="L1063" from="201" to="405" type="2_lane"/>
    <edge id="L1064" from="227" to="523" type="2_lane"/>
    <edge id="L1065" from="472" to="501" type="3_lane"/>
    <edge id="L1066" from="204" to="289" type="3_lane"/>
    <edge id="L1067" from="241" to="474" type="3_lane"/>
    <edge id="L1068" from="393" to="264" type="3_lane"/>
    <edge id="L1071" from="370" to="226" type="2_lane"/>
    <edge id="L1072" from="226" to="461" type="1_lane"/>
    <edge id="L1073" from="489" to="2611" type="3_lane"/>
    <edge id="L1075" from="461" to="2578" type="3_lane"/>
    <edge id="L1077" from="398" to="480" type="2_lane"/>
    <edge id="L1079" from="217" to="419" type="1_lane"/>
    <edge id="L1081" from="89" to="461" type="2_lane"/>
    <edge id="L1084" from="480" to="489" type="3_lane"/>
    <edge id="L1086" from="324" to="446" type="3_lane"/>
    <edge id="L1090" from="446" to="469" type="2_lane"/>
    <edge id="L1101" from="384" to="447" type="2_lane"/>
    <edge id="L1103" from="453" to="323" type="3_lane"/>
    <edge id="L1107" from="427" to="524" type="4_lane"/>
    <edge id="L1108" from="438" to="427" type="4_lane"/>
    <edge id="L1110" from="201" to="438" type="4_lane"/>
    <edge id="L1114" from="250" to="237" type="2_lane"/>
    <edge id="L1115" from="237" to="414" type="2_lane"/>
    <edge id="L1116" from="414" to="453" type="3_lane"/>
    <edge id="L1123" from="494" to="90381" type="1_lane"/>
    <edge id="L1125" from="481" to="457" type="4_lane"/>
    <edge id="L1126" from="478" to="422" type="3_lane"/>
    <edge id="L1127" from="405" to="478" type="2_lane"/>
    <edge id="L1132" from="393" to="398" type="3_lane"/>
    <edge id="L1134" from="264" to="472" type="5_lane"/>
    <edge id="L1135" from="474" to="204" type="5_lane"/>
    <edge id="L1136" from="501" to="241" type="5_lane"/>
    <edge id="L1137" from="285" to="357" type="1_lane"/>
    <edge id="L1140" from="446" to="381" type="2_lane"/>
    <edge id="L901140" from="446" to="90381" type="1_lane"/>
    <edge id="L1141" from="469" to="401" type="3_lane"/>
    <edge id="L1143" from="216" to="324" type="3_lane"/>
    <edge id="L1144" from="483" to="434" type="3_lane"/>
    <edge id="L1146" from="479" to="419" type="1_lane"/>
    <edge id="L1148" from="261" to="250" type="2_lane"/>
    <edge id="L1149" from="212" to="261" type="2_lane"/>
    <edge id="L1156" from="213" to="216" type="3_lane"/>
    <edge id="L1157" from="410" to="2819" type="3_lane"/>
    <edge id="L1163" from="328" to="88" type="3_lane"/>
    <edge id="L1168" from="2964" to="2933" type="2_lane"/>
    <edge id="L1169" from="2953" to="2968" type="2_lane"/>
    <edge id="L1172" from="2943" to="2940" type="3_lane"/>
    <edge id="L1177" from="356" to="286" type="3_lane"/>
    <edge id="L1178" from="2950" to="2412" type="3_lane"/>
    <edge id="L1181" from="2945" to="2936" type="2_lane"/>
    <edge id="L1183" from="20090" to="20091" type="2_lane"/>
    <edge id="L1185" from="546" to="1397" type="3_lane"/>
    <edge id="L1186" from="2944" to="214" type="3_lane"/>
    <edge id="L1187" from="1397" to="205" type="3_lane"/>
    <edge id="L1188" from="1396" to="223" type="3_lane"/>
    <edge id="L1190" from="20017" to="2956" type="5_lane"/>
    <edge id="L1191" from="205" to="114" type="3_lane"/>
    <edge id="L1192" from="2935" to="20016" type="3_lane"/>
    <edge id="L1193" from="171" to="1396" type="5_lane"/>
    <edge id="L1195" from="545" to="2967" type="4_lane"/>
    <edge id="L1196" from="2956" to="2964" type="2_lane"/>
    <edge id="L1198" from="2963" to="2935" type="2_lane"/>
    <edge id="L1199" from="2933" to="2944" type="3_lane"/>
    <edge id="L1200" from="114" to="1594" type="3_lane"/>
    <edge id="L1202" from="2967" to="2954" type="2_lane"/>
    <edge id="L1203" from="2954" to="2963" type="2_lane"/>
    <edge id="L1204" from="20068" to="2952" type="3_lane"/>
    <edge id="L1206" from="2951" to="2933" type="2_lane"/>
    <edge id="L1208" from="2952" to="2941" type="3_lane"/>
    <edge id="L1209" from="2955" to="20070" type="3_lane"/>
    <edge id="L1210" from="2968" to="2951" type="2_lane"/>
    <edge id="L1211" from="128" to="601" type="5_lane"/>
    <edge id="L1214" from="2941" to="2943" type="3_lane"/>
    <edge id="L1215" from="2953" to="2955" type="3_lane"/>
    <edge id="L1225" from="2424" to="2953" type="3_lane"/>
    <edge id="L1233" from="2940" to="2942" type="3_lane"/>
    <edge id="L1237" from="169" to="259" type="5_lane"/>
    <edge id="L1239" from="723" to="1566" type="3_lane"/>
    <edge id="L1242" from="311" to="143" type="3_lane"/>
    <edge id="L1245" from="554" to="143" type="3_lane"/>
    <edge id="L1247" from="555" to="550" type="4_lane"/>
    <edge id="L1248" from="125" to="1544" type="3_lane"/>
    <edge id="L1252" from="257" to="553" type="1_lane"/>
    <edge id="L1253" from="147" to="723" type="3_lane"/>
    <edge id="L1259" from="556" to="554" type="5_lane"/>
    <edge id="L1260" from="520" to="1394" type="3_lane"/>
    <edge id="L1262" from="1394" to="1393" type="3_lane"/>
    <edge id="L1263" from="1398" to="127" type="3_lane"/>
    <edge id="L1264" from="2931" to="2957" type="4_lane"/>
    <edge id="L1265" from="552" to="556" type="2_lane"/>
    <edge id="L1266" from="244" to="552" type="2_lane"/>
    <edge id="L1267" from="2938" to="506" type="2_lane"/>
    <edge id="L1269" from="526" to="2947" type="4_lane"/>
    <edge id="L1270" from="168" to="421" type="3_lane"/>
    <edge id="L1271" from="2957" to="2965" type="3_lane"/>
    <edge id="L1274" from="20093" to="20092" type="2_lane"/>