<additional>
  <laneAreaDetector file="areal0.txt" freq="100" friendlyPos="true" id="e2_L10009_0_2" lane="L10009_0" length="424.63" pos="3"/>
  <laneAreaDetector file="areal1.txt" freq="100" friendlyPos="true" id="e2_L10009_1_2" lane="L10009_1" length="424.63" pos="3"/>
  <laneAreaDetector file="areal2.txt" freq="100" friendlyPos="true" id="e2_L10009_2_2" lane="L10009_2" length="424.63" pos="3"/>
  <laneAreaDetector file="areal3.txt" freq="100" friendlyPos="true" id="e2_L10130_0_2" lane="L10130_0" length="243.38" pos="3"/>
  <laneAreaDetector file="areal4.txt" freq="100" friendlyPos="true" id="e2_L10130_1_2" lane="L10130_1" length="243.38" pos="3"/>
  <laneAreaDetector file="areal5.txt" freq="100" friendlyPos="true" id="e2_L10130_2_2" lane="L10130_2" length="243.38" pos="3"/>
  <laneAreaDetector file="areal6.txt" freq="100" friendlyPos="true" id="e2_L10130_3_2" lane="L10130_3" length="243.38" pos="3"/>
  <laneAreaDetector file="areal7.txt" freq="100" friendlyPos="true" id="e2_L10189_0_0" lane="L10189_0" length="30" pos="141.59"/>
  <laneAreaDetector file="areal8.txt" freq="100" friendlyPos="true" id="e2_L10189_0_1" lane="L10189_0" length="138.59" pos="3"/>
  <laneAreaDetector file="areal9.txt" freq="100" friendlyPos="true" id="e2_L10189_1_0" lane="L10189_1" length="30" pos="141.59"/>
  <laneAreaDetector file="areal10.txt" freq="100" friendlyPos="true" id="e2_L10189_1_1" lane="L10189_1" length="138.59" pos="3"/>
  <laneAreaDetector file="areal11.txt" freq="100" friendlyPos="true" id="e2_L10189_2_0" lane="L10189_2" length="30" pos="141.59"/>
  <laneAreaDetector file="areal12.txt" freq="100" friendlyPos="true" id="e2_L10189_2_1" lane="L10189_2" length="138.59" pos="3"/>
  <laneAreaDetector file="areal13.txt" freq="100" friendlyPos="true" id="e2_L10189_3_0" lane="L10189_3" length="30" pos="141.59"/>
  <laneAreaDetector file="areal14.txt" freq="100" friendlyPos="true" id="e2_L10189_3_1" lane="L10189_3" length="138.59" pos="3"/>
  <laneAreaDetector file="areal15.txt" freq="100" friendlyPos="true" id="e2_L193#1_0_2" lane="L193#1_0" length="235.89" pos="0"/>
  <laneAreaDetector file="areal16.txt" freq="100" friendlyPos="true" id="e2_L193#1_1_2" lane="L193#1_1" length="235.89" pos="0"/>
  <laneAreaDetector file="areal17.txt" freq="100" friendlyPos="true" id="e2_L193#1_2_2" lane="L193#1_2" length="235.89" pos="0"/>
  <laneAreaDetector file="areal18.txt" freq="100" friendlyPos="true" id="e2_L193#1_3_2" lane="L193#1_3" length="235.89" pos="0"/>
  <laneAreaDetector file="areal19.txt" freq="100" friendlyPos="true" id="e2_L193#2_0_1" lane="L193#2_0" length="98.56" pos="0"/>
  <laneAreaDetector file="areal20.txt" freq="100" friendlyPos="true" id="e2_L193#2_1_1" lane="L193#2_1" length="98.56" pos="0"/>
  <laneAreaDetector file="areal21.txt" freq="100" friendlyPos="true" id="e2_L193#2_2_1" lane="L193#2_2" length="98.56" pos="0"/>
  <laneAreaDetector file="areal22.txt" freq="100" friendlyPos="true" id="e2_L193#2_3_1" lane="L193#2_3" length="98.56" pos="0"/>
  <laneAreaDetector file="areal23.txt" freq="100" friendlyPos="true" id="e2_L193#2_4_1" lane="L193#2_4" length="98.56" pos="0"/>
  <laneAreaDetector file="areal24.txt" freq="100" friendlyPos="true" id="e2_L197#1_0_1" lane="L197#1_0" length="215.71" pos="3"/>
  <laneAreaDetector file="areal25.txt" freq="100" friendlyPos="true" id="e2_L197#1_1_1" lane="L197#1_1" length="215.71" pos="3"/>
  <laneAreaDetector file="areal26.txt" freq="100" friendlyPos="true" id="e2_L197#1_2_1" lane="L197#1_2" length="215.71" pos="3"/>
  <laneAreaDetector file="areal27.txt" freq="100" friendlyPos="true" id="e2_L197#1_3_1" lane="L197#1_3" length="215.71" pos="3"/>
  <laneAreaDetector file="areal28.txt" freq="100" friendlyPos="true" id="e2_L197#2_0_0" lane="L197#2_0" length="30" pos="38.75"/>
  <laneAreaDetector file="areal29.txt" freq="100" friendlyPos="true" id="e2_L197#2_0_1" lane="L197#2_0" length="38.75" pos="0"/>
  <laneAreaDetector file="areal30.txt" freq="100" friendlyPos="true" id="e2_L197#2_1_0" lane="L197#2_1" length="30" pos="38.75"/>
  <laneAreaDetector file="areal31.txt" freq="100" friendlyPos="true" id="e2_L197#2_1_1" lane="L197#2_1" length="38.75" pos="0"/>
  <laneAreaDetector file="areal32.txt" freq="100" friendlyPos="true" id="e2_L197#2_2_0" lane="L197#2_2" length="30" pos="38.75"/>
  <laneAreaDetector file="areal33.txt" freq="100" friendlyPos="true" id="e2_L197#2_2_1" lane="L197#2_2" length="38.75" pos="0"/>
  <laneAreaDetector file="areal34.txt" freq="100" friendlyPos="true" id="e2_L197#2_3_0" lane="L197#2_3" length="30" pos="38.75"/>
  <laneAreaDetector file="areal35.txt" freq="100" friendlyPos="true" id="e2_L197#2_3_1" lane="L197#2_3" length="38.75" pos="0"/>
  <laneAreaDetector file="areal36.txt" freq="100" friendlyPos="true" id="e2_L197#2_4_0" lane="L197#2_4" length="30" pos="38.75"/>
  <laneAreaDetector file="areal37.txt" freq="100" friendlyPos="true" id="e2_L197#2_4_1" lane="L197#2_4" length="38.75" pos="0"/>
  <laneAreaDetector file="areal38.txt" freq="100" friendlyPos="true" id="e2_L232_0_1" lane="L232_0" length="79.62" pos="3"/>
  <laneAreaDetector file="areal39.txt" freq="100" friendlyPos="true" id="e2_L232_1_1" lane="L232_1" length="79.62" pos="3"/>
  <laneAreaDetector file="areal40.txt" freq="100" friendlyPos="true" id="e2_L232_2_1" lane="L232_2" length="79.62" pos="3"/>
  <laneAreaDetector file="areal41.txt" freq="100" friendlyPos="true" id="e2_L232_3_1" lane="L232_3" length="79.62" pos="3"/>
  <laneAreaDetector file="areal42.txt" freq="100" friendlyPos="true" id="e2_L232_4_1" lane="L232_4" length="79.62" pos="3"/>
  <laneAreaDetector file="areal43.txt" freq="100" friendlyPos="true" id="e2_L239_0_0" lane="L239_0" length="36.12" pos="0"/>
  <laneAreaDetector file="areal44.txt" freq="100" friendlyPos="true" id="e2_L239_1_0" lane="L239_1" length="36.12" pos="0"/>
  <laneAreaDetector file="areal45.txt" freq="100" friendlyPos="true" id="e2_L239_2_0" lane="L239_2" length="36.12" pos="0"/>
  <laneAreaDetector file="areal46.txt" freq="100" friendlyPos="true" id="e2_L239_3_0" lane="L239_3" length="36.12" pos="0"/>
  <laneAreaDetector file="areal47.txt" freq="100" friendlyPos="true" id="e2_L249_0_1" lane="L249_0" length="50.98" pos="4"/>
  <laneAreaDetector file="areal48.txt" freq="100" friendlyPos="true" id="e2_L249_1_1" lane="L249_1" length="50.98" pos="4"/>
  <laneAreaDetector file="areal49.txt" freq="100" friendlyPos="true" id="e2_L249_2_1" lane="L249_2" length="50.98" pos="4"/>
  <laneAreaDetector file="areal50.txt" freq="100" friendlyPos="true" id="e2_L249_3_1" lane="L249_3" length="50.98" pos="4"/>
  <laneAreaDetector file="areal51.txt" freq="100" friendlyPos="true" id="e2_L250_0_2" lane="L250_0" length="139.54" pos="0"/>
  <laneAreaDetector file="areal52.txt" freq="100" friendlyPos="true" id="e2_L250_1_2" lane="L250_1" length="139.54" pos="0"/>
  <laneAreaDetector file="areal53.txt" freq="100" friendlyPos="true" id="e2_L250_2_2" lane="L250_2" length="139.54" pos="0"/>
  <laneAreaDetector file="areal54.txt" freq="100" friendlyPos="true" id="e2_L250_3_2" lane="L250_3" length="139.54" pos="0"/>
  <laneAreaDetector file="areal55.txt" freq="100" friendlyPos="true" id="e2_L37_0_2" lane="L37_0" length="54.19" pos="0"/>
  <laneAreaDetector file="areal56.txt" freq="100" friendlyPos="true" id="e2_L37_1_2" lane="L37_1" length="54.19" pos="0"/>
  <laneAreaDetector file="areal57.txt" freq="100" friendlyPos="true" id="e2_L37_2_2" lane="L37_2" length="54.19" pos="0"/>
  <laneAreaDetector file="areal58.txt" freq="100" friendlyPos="true" id="e2_L37_3_2" lane="L37_3" length="54.19" pos="0"/>
  <laneAreaDetector file="areal59.txt" freq="100" friendlyPos="true" id="e2_L40_0_0" lane="L40_0" length="30" pos="485.18"/>
  <laneAreaDetector file="areal60.txt" freq="100" friendlyPos="true" id="e2_L40_0_1" lane="L40_0" length="170" pos="315.18"/>
  <laneAreaDetector file="areal61.txt" freq="100" friendlyPos="true" id="e2_L40_0_2" lane="L40_0" length="315.18" pos="0"/>
  <laneAreaDetector file="areal62.txt" freq="100" friendlyPos="true" id="e2_L40_1_0" lane="L40_1" length="30" pos="485.18"/>
  <laneAreaDetector file="areal63.txt" freq="100" friendlyPos="true" id="e2_L40_1_1" lane="L40_1" length="170" pos="315.18"/>
  <laneAreaDetector file="areal64.txt" freq="100" friendlyPos="true" id="e2_L40_1_2" lane="L40_1" length="315.18" pos="0"/>
  <laneAreaDetector file="areal65.txt" freq="100" friendlyPos="true" id="e2_L40_2_0" lane="L40_2" length="30" pos="485.18"/>
  <laneAreaDetector file="areal66.txt" freq="100" friendlyPos="true" id="e2_L40_2_1" lane="L40_2" length="170" pos="315.18"/>
  <laneAreaDetector file="areal67.txt" freq="100" friendlyPos="true" id="e2_L40_2_2" lane="L40_2" length="315.18" pos="0"/>
  <laneAreaDetector file="areal68.txt" freq="100" friendlyPos="true" id="e2_L40_3_0" lane="L40_3" length="30" pos="485.18"/>
  <laneAreaDetector file="areal69.txt" freq="100" friendlyPos="true" id="e2_L40_3_1" lane="L40_3" length="170" pos="315.18"/>
  <laneAreaDetector file="areal70.txt" freq="100" friendlyPos="true" id="e2_L40_3_2" lane="L40_3" length="315.18" pos="0"/>
</additional>

