<?xml version="1.0" encoding="UTF-8"?>
<connections xmlns:xsi="http://www.w3.org/2001/XMLSchema-instance"
 xsi:noNamespaceSchemaLocation="http://sumo.sf.net/xsd/connections_file.xsd">
    <connection from="L14944" to="L24648" fromLane="0" toLane="0"/>
    <connection from="L40654" to="L40663" fromLane="0" toLane="0"/>
    <connection from="L40654" to="L40663" fromLane="0" toLane="1"/>
    <connection from="L40654" to="L40663" fromLane="1" toLane="0"/>
    <connection from="L40654" to="L40663" fromLane="1" toLane="1"/>
    <connection from="L40654" to="L40663" fromLane="2" toLane="0"/>
    <connection from="L40654" to="L40663" fromLane="2" toLane="1"/>
    <connection from="L40654" to="L40663" fromLane="3" toLane="0"/>
    <connection from="L40654" to="L40663" fromLane="3" toLane="1"/>
    <connection from="L40654" to="L40663" fromLane="4" toLane="0"/>
    <connection from="L40654" to="L40663" fromLane="4" toLane="1"/>
    <connection from="L900290356" to="L900190350" fromLane="0" toLane="0"/>
    <connection from="L24955" to="L14957" fromLane="0" toLane="0"/>
    <connection from="L21625" to="L3037" fromLane="0" toLane="1"/>
    <connection from="L21625" to="L3037" fromLane="0" toLane="0"/>
    <connection from="L40024" to="L40054" fromLane="0" toLane="0"/>
    <connection from="L50246" to="L38" fromLane="0" toLane="0"/>
    <connection from="L2612" to="L2622" fromLane="0" toLane="0"/>
    <connection from="L504" to="L819" fromLane="0" toLane="0"/>
    <connection from="L504" to="L819" fromLane="0" toLane="1"/>
    <connection from="L504" to="L819" fromLane="1" toLane="0"/>
    <connection from="L504" to="L819" fromLane="1" toLane="1"/>
    <connection from="L14900" to="L14640" fromLane="0" toLane="0"/>
    <connection from="L12720" to="L24296" fromLane="0" toLane="0"/>
    <connection from="L12720" to="L24296" fromLane="0" toLane="1"/>
    <connection from="L12720" to="L24296" fromLane="1" toLane="0"/>
    <connection from="L12720" to="L24296" fromLane="1" toLane="1"/>
    <connection from="L582" to="L40606" fromLane="0" toLane="0"/>
    <connection from="L582" to="L40606" fromLane="0" toLane="1"/>
    <connection from="L582" to="L40606" fromLane="0" toLane="2"/>
    <connection from="L582" to="L40606" fromLane="1" toLane="0"/>
    <connection from="L582" to="L40606" fromLane="1" toLane="1"/>
    <connection from="L582" to="L40606" fromLane="1" toLane="2"/>
    <connection from="L582" to="L40606" fromLane="2" toLane="0"/>
    <connection from="L582" to="L40606" fromLane="2" toLane="1"/>
    <connection from="L582" to="L40606" fromLane="2" toLane="2"/>
    <connection from="L2736" to="L22719" fromLane="2" toLane="1"/>
    <connection from="L2736" to="L22719" fromLane="2" toLane="0"/>
    <connection from="L1582" to="L1588" fromLane="0" toLane="2"/>
    <connection from="L1582" to="L1588" fromLane="0" toLane="1"/>
    <connection from="L4338" to="L13329" fromLane="0" toLane="0"/>
    <connection from="L12977" to="L11601" fromLane="1" toLane="0"/>
    <connection from="L12977" to="L11601" fromLane="1" toLane="1"/>
    <connection from="L12977" to="L11601" fromLane="2" toLane="0"/>
    <connection from="L12977" to="L11601" fromLane="2" toLane="1"/>
    <connection from="L40246" to="L40378" fromLane="0" toLane="0"/>
    <connection from="L40246" to="L40378" fromLane="0" toLane="1"/>
    <connection from="L40246" to="L40378" fromLane="0" toLane="2"/>
    <connection from="L40246" to="L40378" fromLane="0" toLane="3"/>
    <connection from="L40246" to="L40378" fromLane="0" toLane="4"/>
    <connection from="L40246" to="L40378" fromLane="1" toLane="0"/>
    <connection from="L40246" to="L40378" fromLane="1" toLane="1"/>
    <connection from="L40246" to="L40378" fromLane="1" toLane="2"/>
    <connection from="L40246" to="L40378" fromLane="1" toLane="3"/>
    <connection from="L40246" to="L40378" fromLane="1" toLane="4"/>
    <connection from="L40246" to="L40378" fromLane="2" toLane="0"/>
    <connection from="L40246" to="L40378" fromLane="2" toLane="1"/>
    <connection from="L40246" to="L40378" fromLane="2" toLane="2"/>
    <connection from="L40246" to="L40378" fromLane="2" toLane="3"/>
    <connection from="L40246" to="L40378" fromLane="2" toLane="4"/>
    <connection from="L40246" to="L40378" fromLane="3" toLane="0"/>
    <connection from="L40246" to="L40378" fromLane="3" toLane="1"/>
    <connection from="L40246" to="L40378" fromLane="3" toLane="2"/>
    <connection from="L40246" to="L40378" fromLane="3" toLane="3"/>
    <connection from="L40246" to="L40378" fromLane="3" toLane="4"/>
    <connection from="L3034" to="L3057" fromLane="0" toLane="0"/>
    <connection from="L3670" to="L1997" fromLane="0" toLane="0"/>
    <connection from="L3670" to="L1997" fromLane="0" toLane="1"/>
    <connection from="L3670" to="L1997" fromLane="0" toLane="2"/>
    <connection from="L3670" to="L1997" fromLane="1" toLane="0"/>
    <connection from="L3670" to="L1997" fromLane="1" toLane="1"/>
    <connection from="L3670" to="L1997" fromLane="1" toLane="2"/>
    <connection from="L3670" to="L1997" fromLane="2" toLane="0"/>
    <connection from="L3670" to="L1997" fromLane="2" toLane="1"/>
    <connection from="L3670" to="L1997" fromLane="2" toLane="2"/>
    <connection from="L49" to="L10130" fromLane="0" toLane="0"/>
    <connection from="L49" to="L10130" fromLane="0" toLane="1"/>
    <connection from="L49" to="L10130" fromLane="1" toLane="0"/>
    <connection from="L49" to="L10130" fromLane="1" toLane="1"/>
    <connection from="L2982" to="L900190248" fromLane="1" toLane="0"/>
    <connection from="L22832" to="L12836" fromLane="1" toLane="1"/>
    <connection from="L22832" to="L12836" fromLane="1" toLane="0"/>
    <connection from="L900290230" to="L900290231" fromLane="0" toLane="0"/>
    <connection from="L537" to="L40069" fromLane="0" toLane="0"/>
    <connection from="L3992" to="L3993" fromLane="2" toLane="0"/>
    <connection from="L3992" to="L3993" fromLane="2" toLane="1"/>
    <connection from="L3992" to="L3993" fromLane="2" toLane="2"/>
    <connection from="L3992" to="L3993" fromLane="2" toLane="3"/>
    <connection from="L3992" to="L3993" fromLane="2" toLane="4"/>
    <connection from="L3992" to="L3993" fromLane="3" toLane="0"/>
    <connection from="L3992" to="L3993" fromLane="3" toLane="1"/>
    <connection from="L3992" to="L3993" fromLane="3" toLane="2"/>
    <connection from="L3992" to="L3993" fromLane="3" toLane="3"/>
    <connection from="L3992" to="L3993" fromLane="3" toLane="4"/>
    <connection from="L3992" to="L3993" fromLane="4" toLane="0"/>
    <connection from="L3992" to="L3993" fromLane="4" toLane="1"/>
    <connection from="L3992" to="L3993" fromLane="4" toLane="2"/>
    <connection from="L3992" to="L3993" fromLane="4" toLane="3"/>
    <connection from="L3992" to="L3993" fromLane="4" toLane="4"/>
    <connection from="L40215" to="L40706" fromLane="0" toLane="0"/>
    <connection from="L13005" to="L900290368" fromLane="0" toLane="0"/>
    <connection from="L794" to="L846" fromLane="0" toLane="0"/>
    <connection from="L794" to="L846" fromLane="0" toLane="1"/>
    <connection from="L794" to="L846" fromLane="0" toLane="2"/>
    <connection from="L794" to="L846" fromLane="0" toLane="3"/>
    <connection from="L794" to="L846" fromLane="1" toLane="0"/>
    <connection from="L794" to="L846" fromLane="1" toLane="1"/>
    <connection from="L794" to="L846" fromLane="1" toLane="2"/>
    <connection from="L794" to="L846" fromLane="1" toLane="3"/>
    <connection from="L794" to="L846" fromLane="2" toLane="0"/>
    <connection from="L794" to="L846" fromLane="2" toLane="1"/>
    <connection from="L794" to="L846" fromLane="2" toLane="2"/>
    <connection from="L794" to="L846" fromLane="2" toLane="3"/>
    <connection from="L794" to="L846" fromLane="3" toLane="0"/>
    <connection from="L794" to="L846" fromLane="3" toLane="1"/>
    <connection from="L794" to="L846" fromLane="3" toLane="2"/>
    <connection from="L794" to="L846" fromLane="3" toLane="3"/>
    <connection from="L816" to="L778" fromLane="0" toLane="0"/>
    <connection from="L816" to="L778" fromLane="0" toLane="1"/>
    <connection from="L848" to="L552" fromLane="0" toLane="1"/>
    <connection from="L848" to="L552" fromLane="0" toLane="0"/>
    <connection from="L12937" to="L2942" fromLane="0" toLane="0"/>
    <connection from="L824" to="L842" fromLane="2" toLane="4"/>
    <connection from="L824" to="L842" fromLane="2" toLane="3"/>
    <connection from="L49" to="L134" fromLane="1" toLane="0"/>
    <connection from="L49" to="L134" fromLane="1" toLane="1"/>
    <connection from="L49" to="L134" fromLane="1" toLane="2"/>
    <connection from="L49" to="L134" fromLane="2" toLane="0"/>
    <connection from="L49" to="L134" fromLane="2" toLane="1"/>
    <connection from="L49" to="L134" fromLane="2" toLane="2"/>
    <connection from="L40142" to="L11083" fromLane="0" toLane="0"/>
    <connection from="L40108" to="L900290365" fromLane="0" toLane="0"/>
    <connection from="L40544" to="L40545" fromLane="0" toLane="3"/>
    <connection from="L40544" to="L40545" fromLane="0" toLane="2"/>
    <connection from="L40544" to="L40545" fromLane="1" toLane="3"/>
    <connection from="L40544" to="L40545" fromLane="1" toLane="2"/>
    <connection from="L23429" to="L11884" fromLane="0" toLane="0"/>
    <connection from="L23429" to="L11884" fromLane="0" toLane="1"/>
    <connection from="L23429" to="L11884" fromLane="0" toLane="2"/>
    <connection from="L23429" to="L11884" fromLane="0" toLane="3"/>
    <connection from="L23429" to="L11884" fromLane="1" toLane="0"/>
    <connection from="L23429" to="L11884" fromLane="1" toLane="1"/>
    <connection from="L23429" to="L11884" fromLane="1" toLane="2"/>
    <connection from="L23429" to="L11884" fromLane="1" toLane="3"/>
    <connection from="L23429" to="L11884" fromLane="2" toLane="0"/>
    <connection from="L23429" to="L11884" fromLane="2" toLane="1"/>
    <connection from="L23429" to="L11884" fromLane="2" toLane="2"/>
    <connection from="L23429" to="L11884" fromLane="2" toLane="3"/>
    <connection from="L23429" to="L11884" fromLane="3" toLane="0"/>
    <connection from="L23429" to="L11884" fromLane="3" toLane="1"/>
    <connection from="L23429" to="L11884" fromLane="3" toLane="2"/>
    <connection from="L23429" to="L11884" fromLane="3" toLane="3"/>
    <connection from="L15102" to="L15103" fromLane="0" toLane="0"/>
    <connection from="L24964" to="L15166" fromLane="0" toLane="0"/>
    <connection from="L3037" to="L13032" fromLane="0" toLane="0"/>
    <connection from="L3037" to="L13032" fromLane="0" toLane="1"/>
    <connection from="L40747" to="L3977" fromLane="0" toLane="0"/>
    <connection from="L3050" to="L1628" fromLane="1" toLane="0"/>
    <connection from="L3050" to="L1628" fromLane="1" toLane="1"/>
    <connection from="L3050" to="L1628" fromLane="1" toLane="2"/>
    <connection from="L3050" to="L1628" fromLane="1" toLane="3"/>
    <connection from="L3050" to="L1628" fromLane="2" toLane="0"/>
    <connection from="L3050" to="L1628" fromLane="2" toLane="1"/>
    <connection from="L3050" to="L1628" fromLane="2" toLane="2"/>
    <connection from="L3050" to="L1628" fromLane="2" toLane="3"/>
    <connection from="L3050" to="L1628" fromLane="3" toLane="0"/>
    <connection from="L3050" to="L1628" fromLane="3" toLane="1"/>
    <connection from="L3050" to="L1628" fromLane="3" toLane="2"/>
    <connection from="L3050" to="L1628" fromLane="3" toLane="3"/>
    <connection from="L4774" to="L14770" fromLane="0" toLane="1"/>
    <connection from="L4774" to="L14770" fromLane="0" toLane="0"/>
    <connection from="L900290381" to="L4849" fromLane="0" toLane="0"/>
    <connection from="L21814" to="L40788" fromLane="0" toLane="0"/>
    <connection from="L4850" to="L3101" fromLane="0" toLane="3"/>
    <connection from="L4850" to="L3101" fromLane="0" toLane="2"/>
    <connection from="L2707" to="L2723" fromLane="0" toLane="0"/>
    <connection from="L2707" to="L2723" fromLane="0" toLane="1"/>
    <connection from="L2707" to="L2723" fromLane="1" toLane="0"/>
    <connection from="L2707" to="L2723" fromLane="1" toLane="1"/>
    <connection from="L3464" to="L614" fromLane="0" toLane="0"/>
    <connection from="L3464" to="L614" fromLane="0" toLane="1"/>
    <connection from="L3464" to="L614" fromLane="0" toLane="2"/>
    <connection from="L3464" to="L614" fromLane="0" toLane="3"/>
    <connection from="L3464" to="L614" fromLane="1" toLane="0"/>
    <connection from="L3464" to="L614" fromLane="1" toLane="1"/>
    <connection from="L3464" to="L614" fromLane="1" toLane="2"/>
    <connection from="L3464" to="L614" fromLane="1" toLane="3"/>
    <connection from="L3464" to="L614" fromLane="2" toLane="0"/>
    <connection from="L3464" to="L614" fromLane="2" toLane="1"/>
    <connection from="L3464" to="L614" fromLane="2" toLane="2"/>
    <connection from="L3464" to="L614" fromLane="2" toLane="3"/>
    <connection from="L3464" to="L614" fromLane="3" toLane="0"/>
    <connection from="L3464" to="L614" fromLane="3" toLane="1"/>
    <connection from="L3464" to="L614" fromLane="3" toLane="2"/>
    <connection from="L3464" to="L614" fromLane="3" toLane="3"/>
    <connection from="L10172" to="L10178" fromLane="0" toLane="0"/>
    <connection from="L10172" to="L10178" fromLane="0" toLane="1"/>
    <connection from="L24716" to="L25090" fromLane="0" toLane="0"/>
    <connection from="L77" to="L900290356" fromLane="0" toLane="0"/>
    <connection from="L900290389" to="L900190390" fromLane="0" toLane="0"/>
    <connection from="L2960" to="L2997" fromLane="0" toLane="0"/>
    <connection from="L2960" to="L2997" fromLane="0" toLane="1"/>
    <connection from="L2960" to="L2997" fromLane="0" toLane="2"/>
    <connection from="L2960" to="L2997" fromLane="1" toLane="0"/>
    <connection from="L2960" to="L2997" fromLane="1" toLane="1"/>
    <connection from="L2960" to="L2997" fromLane="1" toLane="2"/>
    <connection from="L2960" to="L2997" fromLane="2" toLane="0"/>
    <connection from="L2960" to="L2997" fromLane="2" toLane="1"/>
    <connection from="L2960" to="L2997" fromLane="2" toLane="2"/>
    <connection from="L2946" to="L4817" fromLane="0" toLane="0"/>
    <connection from="L1664" to="L1659" fromLane="0" toLane="0"/>
    <connection from="L1664" to="L1659" fromLane="0" toLane="1"/>
    <connection from="L1664" to="L1659" fromLane="1" toLane="0"/>
    <connection from="L1664" to="L1659" fromLane="1" toLane="1"/>
    <connection from="L24869" to="L14618" fromLane="0" toLane="0"/>
    <connection from="L11028" to="L11016" fromLane="0" toLane="0"/>
    <connection from="L23489" to="L14986" fromLane="1" toLane="0"/>
    <connection from="L40301" to="L1062" fromLane="2" toLane="0"/>
    <connection from="L200004004" to="L2353" fromLane="1" toLane="0"/>
    <connection from="L3310" to="L40794" fromLane="0" toLane="0"/>
    <connection from="L24948" to="L1853" fromLane="0" toLane="0"/>
    <connection from="L900290231" to="L23782" fromLane="0" toLane="0"/>
    <connection from="L900290231" to="L23782" fromLane="0" toLane="1"/>
    <connection from="L4496" to="L14495" fromLane="0" toLane="0"/>
    <connection from="L4496" to="L14495" fromLane="0" toLane="1"/>
    <connection from="L1237" to="L40188" fromLane="2" toLane="0"/>
    <connection from="L1237" to="L40188" fromLane="2" toLane="1"/>
    <connection from="L1237" to="L40188" fromLane="2" toLane="2"/>
    <connection from="L1237" to="L40188" fromLane="3" toLane="0"/>
    <connection from="L1237" to="L40188" fromLane="3" toLane="1"/>
    <connection from="L1237" to="L40188" fromLane="3" toLane="2"/>
    <connection from="L1237" to="L40188" fromLane="4" toLane="0"/>
    <connection from="L1237" to="L40188" fromLane="4" toLane="1"/>
    <connection from="L1237" to="L40188" fromLane="4" toLane="2"/>
    <connection from="L545" to="L528" fromLane="0" toLane="0"/>
    <connection from="L545" to="L528" fromLane="0" toLane="1"/>
    <connection from="L545" to="L528" fromLane="1" toLane="0"/>
    <connection from="L545" to="L528" fromLane="1" toLane="1"/>
    <connection from="L11102" to="L1156" fromLane="0" toLane="0"/>
    <connection from="L11102" to="L1156" fromLane="0" toLane="1"/>
    <connection from="L4578" to="L11467" fromLane="0" toLane="1"/>
    <connection from="L4578" to="L11467" fromLane="0" toLane="0"/>
    <connection from="L14478" to="L4475" fromLane="0" toLane="0"/>
    <connection from="L14478" to="L4475" fromLane="0" toLane="1"/>
    <connection from="L14478" to="L4475" fromLane="1" toLane="0"/>
    <connection from="L14478" to="L4475" fromLane="1" toLane="1"/>
    <connection from="L2811" to="L12899" fromLane="0" toLane="0"/>
    <connection from="L900190374" to="L24898" fromLane="0" toLane="0"/>
    <connection from="L4039" to="L2351" fromLane="1" toLane="0"/>
    <connection from="L4039" to="L2351" fromLane="1" toLane="1"/>
    <connection from="L4039" to="L2351" fromLane="1" toLane="2"/>
    <connection from="L4039" to="L2351" fromLane="2" toLane="0"/>
    <connection from="L4039" to="L2351" fromLane="2" toLane="1"/>
    <connection from="L4039" to="L2351" fromLane="2" toLane="2"/>
    <connection from="L4039" to="L2351" fromLane="3" toLane="0"/>
    <connection from="L4039" to="L2351" fromLane="3" toLane="1"/>
    <connection from="L4039" to="L2351" fromLane="3" toLane="2"/>
    <connection from="L3969" to="L24403" fromLane="0" toLane="0"/>
    <connection from="L40149" to="L40150" fromLane="0" toLane="0"/>
    <connection from="L40149" to="L40150" fromLane="0" toLane="1"/>
    <connection from="L40149" to="L40150" fromLane="1" toLane="0"/>
    <connection from="L40149" to="L40150" fromLane="1" toLane="1"/>
    <connection from="L40149" to="L40150" fromLane="2" toLane="0"/>
    <connection from="L40149" to="L40150" fromLane="2" toLane="1"/>
    <connection from="L4496" to="L40675" fromLane="0" toLane="0"/>
    <connection from="L4496" to="L40675" fromLane="0" toLane="1"/>
    <connection from="L4496" to="L40675" fromLane="1" toLane="0"/>
    <connection from="L4496" to="L40675" fromLane="1" toLane="1"/>
    <connection from="L40403" to="L40080" fromLane="0" toLane="0"/>
    <connection from="L1191" to="L1200" fromLane="0" toLane="0"/>
    <connection from="L1191" to="L1200" fromLane="0" toLane="1"/>
    <connection from="L1191" to="L1200" fromLane="0" toLane="2"/>
    <connection from="L1191" to="L1200" fromLane="1" toLane="0"/>
    <connection from="L1191" to="L1200" fromLane="1" toLane="1"/>
    <connection from="L1191" to="L1200" fromLane="1" toLane="2"/>
    <connection from="L1191" to="L1200" fromLane="2" toLane="0"/>
    <connection from="L1191" to="L1200" fromLane="2" toLane="1"/>
    <connection from="L1191" to="L1200" fromLane="2" toLane="2"/>
    <connection from="L242" to="L42" fromLane="0" toLane="0"/>
    <connection from="L900290392" to="L900190391" fromLane="0" toLane="0"/>
    <connection from="L40417" to="L40454" fromLane="0" toLane="0"/>
    <connection from="L40417" to="L40454" fromLane="0" toLane="1"/>
    <connection from="L40417" to="L40454" fromLane="0" toLane="2"/>
    <connection from="L40417" to="L40454" fromLane="1" toLane="0"/>
    <connection from="L40417" to="L40454" fromLane="1" toLane="1"/>
    <connection from="L40417" to="L40454" fromLane="1" toLane="2"/>
    <connection from="L40417" to="L40454" fromLane="2" toLane="0"/>
    <connection from="L40417" to="L40454" fromLane="2" toLane="1"/>
    <connection from="L40417" to="L40454" fromLane="2" toLane="2"/>
    <connection from="L40040" to="L679" fromLane="0" toLane="0"/>
    <connection from="L40284" to="L40757" fromLane="0" toLane="0"/>
    <connection from="L40284" to="L40757" fromLane="0" toLane="1"/>
    <connection from="L40284" to="L40757" fromLane="0" toLane="2"/>
    <connection from="L40284" to="L40757" fromLane="1" toLane="0"/>
    <connection from="L40284" to="L40757" fromLane="1" toLane="1"/>
    <connection from="L40284" to="L40757" fromLane="1" toLane="2"/>
    <connection from="L40284" to="L40757" fromLane="2" toLane="0"/>
    <connection from="L40284" to="L40757" fromLane="2" toLane="1"/>
    <connection from="L40284" to="L40757" fromLane="2" toLane="2"/>
    <connection from="L4155" to="L22482" fromLane="0" toLane="0"/>
    <connection from="L4155" to="L22482" fromLane="0" toLane="1"/>
    <connection from="L4155" to="L22482" fromLane="1" toLane="0"/>
    <connection from="L4155" to="L22482" fromLane="1" toLane="1"/>
    <connection from="L4155" to="L22482" fromLane="2" toLane="0"/>
    <connection from="L4155" to="L22482" fromLane="2" toLane="1"/>
    <connection from="L4155" to="L22482" fromLane="3" toLane="0"/>
    <connection from="L4155" to="L22482" fromLane="3" toLane="1"/>
    <connection from="L10018" to="L273" fromLane="2" toLane="0"/>
    <connection from="L15169" to="L24973" fromLane="0" toLane="0"/>
    <connection from="L3051" to="L11625" fromLane="1" toLane="0"/>
    <connection from="L1200" to="L900190272" fromLane="0" toLane="0"/>
    <connection from="L1200" to="L900190272" fromLane="0" toLane="1"/>
    <connection from="L1200" to="L900190272" fromLane="0" toLane="2"/>
    <connection from="L1200" to="L900190272" fromLane="1" toLane="0"/>
    <connection from="L1200" to="L900190272" fromLane="1" toLane="1"/>
    <connection from="L1200" to="L900190272" fromLane="1" toLane="2"/>
    <connection from="L1200" to="L900190272" fromLane="2" toLane="0"/>
    <connection from="L1200" to="L900190272" fromLane="2" toLane="1"/>
    <connection from="L1200" to="L900190272" fromLane="2" toLane="2"/>
    <connection from="L40504" to="L1821" fromLane="2" toLane="0"/>
    <connection from="L40504" to="L1821" fromLane="2" toLane="1"/>
    <connection from="L40504" to="L1821" fromLane="3" toLane="0"/>
    <connection from="L40504" to="L1821" fromLane="3" toLane="1"/>
    <connection from="L40504" to="L1821" fromLane="4" toLane="0"/>
    <connection from="L40504" to="L1821" fromLane="4" toLane="1"/>
    <connection from="L24717" to="L4723" fromLane="0" toLane="0"/>
    <connection from="L13695" to="L2063" fromLane="1" toLane="0"/>
    <connection from="L13695" to="L2063" fromLane="1" toLane="1"/>
    <connection from="L13695" to="L2063" fromLane="1" toLane="2"/>
    <connection from="L13695" to="L2063" fromLane="2" toLane="0"/>
    <connection from="L13695" to="L2063" fromLane="2" toLane="1"/>
    <connection from="L13695" to="L2063" fromLane="2" toLane="2"/>
    <connection from="L77" to="L190" fromLane="0" toLane="0"/>
    <connection from="L5154" to="L13072" fromLane="0" toLane="0"/>
    <connection from="L5154" to="L13072" fromLane="0" toLane="1"/>
    <connection from="L3522" to="L23497" fromLane="0" toLane="0"/>
    <connection from="L3522" to="L23497" fromLane="0" toLane="1"/>
    <connection from="L3522" to="L23497" fromLane="1" toLane="0"/>
    <connection from="L3522" to="L23497" fromLane="1" toLane="1"/>
    <connection from="L40690" to="L3152" fromLane="0" toLane="0"/>
    <connection from="L40103" to="L14775" fromLane="0" toLane="0"/>
    <connection from="L1619" to="L23008" fromLane="0" toLane="0"/>
    <connection from="L23768" to="L3769" fromLane="0" toLane="0"/>
    <connection from="L23768" to="L3769" fromLane="1" toLane="0"/>
    <connection from="L50246" to="L201" fromLane="0" toLane="0"/>
    <connection from="L523" to="L713" fromLane="1" toLane="0"/>
    <connection from="L40585" to="L3980" fromLane="0" toLane="0"/>
    <connection from="L40585" to="L3980" fromLane="0" toLane="1"/>
    <connection from="L2354" to="L4046" fromLane="0" toLane="0"/>
    <connection from="L2354" to="L4046" fromLane="0" toLane="1"/>
    <connection from="L2354" to="L4046" fromLane="0" toLane="2"/>
    <connection from="L2354" to="L4046" fromLane="1" toLane="0"/>
    <connection from="L2354" to="L4046" fromLane="1" toLane="1"/>
    <connection from="L2354" to="L4046" fromLane="1" toLane="2"/>
    <connection from="L2354" to="L4046" fromLane="2" toLane="0"/>
    <connection from="L2354" to="L4046" fromLane="2" toLane="1"/>
    <connection from="L2354" to="L4046" fromLane="2" toLane="2"/>
    <connection from="L3040" to="L3027" fromLane="0" toLane="0"/>
    <connection from="L3040" to="L3027" fromLane="0" toLane="1"/>
    <connection from="L3040" to="L3027" fromLane="0" toLane="2"/>
    <connection from="L3040" to="L3027" fromLane="0" toLane="3"/>
    <connection from="L3040" to="L3027" fromLane="1" toLane="0"/>
    <connection from="L3040" to="L3027" fromLane="1" toLane="1"/>
    <connection from="L3040" to="L3027" fromLane="1" toLane="2"/>
    <connection from="L3040" to="L3027" fromLane="1" toLane="3"/>
    <connection from="L3040" to="L3027" fromLane="2" toLane="0"/>
    <connection from="L3040" to="L3027" fromLane="2" toLane="1"/>
    <connection from="L3040" to="L3027" fromLane="2" toLane="2"/>
    <connection from="L3040" to="L3027" fromLane="2" toLane="3"/>
    <connection from="L3040" to="L3027" fromLane="3" toLane="0"/>
    <connection from="L3040" to="L3027" fromLane="3" toLane="1"/>
    <connection from="L3040" to="L3027" fromLane="3" toLane="2"/>
    <connection from="L3040" to="L3027" fromLane="3" toLane="3"/>
    <connection from="L3040" to="L3027" fromLane="4" toLane="0"/>
    <connection from="L3040" to="L3027" fromLane="4" toLane="1"/>
    <connection from="L3040" to="L3027" fromLane="4" toLane="2"/>
    <connection from="L3040" to="L3027" fromLane="4" toLane="3"/>
    <connection from="L233" to="L179" fromLane="0" toLane="0"/>
    <connection from="L3726" to="L40723" fromLane="0" toLane="0"/>
    <connection from="L3726" to="L40723" fromLane="0" toLane="1"/>
    <connection from="L3726" to="L40723" fromLane="1" toLane="0"/>
    <connection from="L3726" to="L40723" fromLane="1" toLane="1"/>
    <connection from="L3726" to="L40723" fromLane="2" toLane="0"/>
    <connection from="L3726" to="L40723" fromLane="2" toLane="1"/>
    <connection from="L20020" to="L79" fromLane="0" toLane="0"/>
    <connection from="L4010" to="L40242" fromLane="0" toLane="0"/>
    <connection from="L4010" to="L40242" fromLane="0" toLane="1"/>
    <connection from="L4010" to="L40242" fromLane="0" toLane="2"/>
    <connection from="L4010" to="L40242" fromLane="1" toLane="0"/>
    <connection from="L4010" to="L40242" fromLane="1" toLane="1"/>
    <connection from="L4010" to="L40242" fromLane="1" toLane="2"/>
    <connection from="L4010" to="L40242" fromLane="2" toLane="0"/>
    <connection from="L4010" to="L40242" fromLane="2" toLane="1"/>
    <connection from="L4010" to="L40242" fromLane="2" toLane="2"/>
    <connection from="L1552" to="L2900" fromLane="0" toLane="0"/>
    <connection from="L5052" to="L5046" fromLane="0" toLane="0"/>
    <connection from="L58#1" to="L58#2" fromLane="0" toLane="0"/>
    <connection from="L58#1" to="L58#2" fromLane="0" toLane="1"/>
    <connection from="L58#1" to="L58#2" fromLane="0" toLane="2"/>
    <connection from="L58#1" to="L58#2" fromLane="1" toLane="0"/>
    <connection from="L58#1" to="L58#2" fromLane="1" toLane="1"/>
    <connection from="L58#1" to="L58#2" fromLane="1" toLane="2"/>
    <connection from="L4836" to="L3007" fromLane="0" toLane="2"/>
    <connection from="L4836" to="L3007" fromLane="0" toLane="1"/>
    <connection from="L3256" to="L3260" fromLane="0" toLane="0"/>
    <connection from="L3256" to="L3260" fromLane="0" toLane="1"/>
    <connection from="L3256" to="L3260" fromLane="0" toLane="2"/>
    <connection from="L3256" to="L3260" fromLane="1" toLane="0"/>
    <connection from="L3256" to="L3260" fromLane="1" toLane="1"/>
    <connection from="L3256" to="L3260" fromLane="1" toLane="2"/>
    <connection from="L3256" to="L3260" fromLane="2" toLane="0"/>
    <connection from="L3256" to="L3260" fromLane="2" toLane="1"/>
    <connection from="L3256" to="L3260" fromLane="2" toLane="2"/>
    <connection from="L3256" to="L3260" fromLane="3" toLane="0"/>
    <connection from="L3256" to="L3260" fromLane="3" toLane="1"/>
    <connection from="L3256" to="L3260" fromLane="3" toLane="2"/>
    <connection from="L4293" to="L2674" fromLane="0" toLane="0"/>
    <connection from="L4293" to="L2674" fromLane="0" toLane="1"/>
    <connection from="L24710" to="L25078" fromLane="0" toLane="0"/>
    <connection from="L10255" to="L154" fromLane="0" toLane="0"/>
    <connection from="L10255" to="L154" fromLane="0" toLane="1"/>
    <connection from="L10255" to="L154" fromLane="0" toLane="2"/>
    <connection from="L10255" to="L154" fromLane="1" toLane="0"/>
    <connection from="L10255" to="L154" fromLane="1" toLane="1"/>
    <connection from="L10255" to="L154" fromLane="1" toLane="2"/>
    <connection from="L10255" to="L154" fromLane="2" toLane="0"/>
    <connection from="L10255" to="L154" fromLane="2" toLane="1"/>
    <connection from="L10255" to="L154" fromLane="2" toLane="2"/>
    <connection from="L900290353" to="L900290263" fromLane="0" toLane="0"/>
    <connection from="L40088" to="L40087" fromLane="0" toLane="0"/>
    <connection from="L40088" to="L40087" fromLane="0" toLane="1"/>
    <connection from="L40088" to="L40087" fromLane="0" toLane="2"/>
    <connection from="L40088" to="L40087" fromLane="0" toLane="3"/>
    <connection from="L40088" to="L40087" fromLane="1" toLane="0"/>
    <connection from="L40088" to="L40087" fromLane="1" toLane="1"/>
    <connection from="L40088" to="L40087" fromLane="1" toLane="2"/>
    <connection from="L40088" to="L40087" fromLane="1" toLane="3"/>
    <connection from="L40088" to="L40087" fromLane="2" toLane="0"/>
    <connection from="L40088" to="L40087" fromLane="2" toLane="1"/>