<?xml version="1.0" encoding="UTF-8"?>
<connections xmlns:xsi="http://www.w3.org/2001/XMLSchema-instance"
 xsi:noNamespaceSchemaLocation="http://sumo.sf.net/xsd/connections_file.xsd">
    <!--Wittayu Intersection-->
	<connection from="L10223" to="L10029" fromLane="0" toLane="0"/>
	<connection from="L10223" to="L10029" fromLane="0" toLane="1"/>
	<connection from="L10223" to="L10029" fromLane="0" toLane="2"/>
	<connection from="L10223" to="L10029" fromLane="1" toLane="0"/>
	<connection from="L10223" to="L10029" fromLane="1" toLane="1"/>
	<connection from="L10223" to="L10029" fromLane="1" toLane="2"/>
	<connection from="L10223" to="L10113" fromLane="2" toLane="0"/>
	<connection from="L10223" to="L10113" fromLane="2" toLane="1"/>
	<connection from="L10223" to="L10113" fromLane="3" toLane="0"/>
	<connection from="L10223" to="L10113" fromLane="3" toLane="1"/>
	<connection from="L10223" to="L10113" fromLane="4" toLane="0"/>
	<connection from="L10223" to="L10113" fromLane="4" toLane="1"/>
	<delete from="L10223" to="L196" fromLane="1" toLane="0"/>
	<delete from="L10223" to="L196" fromLane="2" toLane="1"/>	
	<delete from="L10223" to="L196" fromLane="5" toLane="1"/>
	<delete from="L10223" to="L196" fromLane="4" toLane="0"/>
	<delete from="L10223" to="L10113" fromLane="5" toLane="0"/>
	<delete from="L10223" to="L10029" fromLane="2" toLane="0"/>
	<delete from="L10223" to="L10029" fromLane="2" toLane="1"/>
	<delete from="L10223" to="L10029" fromLane="2" toLane="2"/>
	<delete from="L10223" to="L225" fromLane="2" toLane="0"/>
	<delete from="L10223" to="L225" fromLane="2" toLane="1"/>
	<delete from="L10223" to="L225" fromLane="2" toLane="2"/>	
	<delete from="L10223" to="L225" fromLane="3" toLane="1"/>
	<delete from="L10223" to="L225" fromLane="3" toLane="2"/>
	<delete from="L10223" to="L10029" fromLane="5" toLane="0"/>
	<delete from="L10223" to="L10029" fromLane="5" toLane="1"/>
	<delete from="L10223" to="L10029" fromLane="5" toLane="2"/>
	<delete from="L10223" to="L10113" fromLane="5" toLane="1"/>
	<delete from="L10223" to="L225" fromLane="5" toLane="0"/>
	<delete from="L10223" to="L225" fromLane="5" toLane="1"/>
	<delete from="L10223" to="L225" fromLane="5" toLane="2"/>
	<connection from="L27" to="L10113" fromLane="0" toLane="0"/>
	<connection from="L27" to="L10113" fromLane="0" toLane="1"/>
	<connection from="L27" to="L10113" fromLane="0" toLane="2"/>
	<connection from="L27" to="L10113" fromLane="1" toLane="0"/>
	<connection from="L27" to="L10113" fromLane="1" toLane="1"/>	
	<connection from="L27" to="L225" fromLane="2" toLane="0"/>
	<connection from="L27" to="L225" fromLane="2" toLane="1"/>
	<connection from="L27" to="L225" fromLane="2" toLane="2"/>
	<connection from="L27" to="L225" fromLane="3" toLane="0"/>
	<connection from="L27" to="L225" fromLane="3" toLane="1"/>
	<connection from="L27" to="L225" fromLane="3" toLane="2"/>
	<delete from="L27" to="L225" fromLane="1" toLane="0"/>
	<delete from="L27" to="L225" fromLane="1" toLane="1"/>
	<delete from="L27" to="L225" fromLane="1" toLane="2"/>	
	<delete from="L27" to="L10029" fromLane="2" toLane="0"/>
	<delete from="L27" to="L10029" fromLane="3" toLane="1"/>
	<delete from="L27" to="L10029" fromLane="3" toLane="2"/>
	<delete from="L27" to="L10113" fromLane="3" toLane="0"/>
	<delete from="L27" to="L10113" fromLane="3" toLane="1"/>
	<delete from="L27" to="L196" fromLane="3" toLane="0"/>
	<delete from="L27" to="L196" fromLane="3" toLane="1"/>
	<delete from="L27" to="L196" fromLane="1" toLane="0"/>	
	<delete from="L27" to="L196" fromLane="1" toLane="1"/>
	<delete from="L27" to="L196" fromLane="2" toLane="0"/>
	<delete from="L27" to="L196" fromLane="2" toLane="1"/>
	<delete from="L27" to="L10029" fromLane="0" toLane="0"/>
	<delete from="L27" to="L10029" fromLane="0" toLane="1"/>
	<delete from="L27" to="L10029" fromLane="0" toLane="2"/>
	<delete from="L27" to="L10029" fromLane="1" toLane="1"/>
	<delete from="L27" to="L10029" fromLane="1" toLane="2"/>	
	<!--<connection from="L61" to="L10114" fromLane="0" toLane="0"/>
	<connection from="L61" to="L10114" fromLane="0" toLane="1"/>
	<connection from="L61" to="L10114" fromLane="0" toLane="2"/>
	<connection from="L61" to="L10114" fromLane="0" toLane="3"/>
	<connection from="L61" to="L10114" fromLane="1" toLane="0"/>
	<connection from="L61" to="L10114" fromLane="1" toLane="1"/>
	<connection from="L61" to="L10114" fromLane="1" toLane="2"/>
	<connection from="L61" to="L10114" fromLane="1" toLane="3"/>
	<connection from="L61" to="L10114" fromLane="2" toLane="0"/>
	<connection from="L61" to="L10114" fromLane="2" toLane="1"/>
	<connection from="L61" to="L10114" fromLane="2" toLane="2"/>
	<connection from="L61" to="L10114" fromLane="2" toLane="3"/>-->
	<connection from="L61" to="L225" fromLane="0" toLane="0"/>
	<connection from="L61" to="L225" fromLane="0" toLane="1"/>
	<connection from="L61" to="L225" fromLane="0" toLane="2"/>
	<connection from="L61" to="L225" fromLane="1" toLane="0"/>
	<connection from="L61" to="L225" fromLane="1" toLane="1"/>
	<connection from="L61" to="L225" fromLane="1" toLane="2"/>
	<connection from="L61" to="L225" fromLane="2" toLane="0"/>
	<connection from="L61" to="L225" fromLane="2" toLane="1"/>
	<connection from="L61" to="L225" fromLane="2" toLane="2"/>	
	<connection from="L61" to="L196" fromLane="3" toLane="0"/>
	<connection from="L61" to="L196" fromLane="3" toLane="1"/>
    <connection from="L61" to="L196" fromLane="4" toLane="0"/>
	<connection from="L61" to="L196" fromLane="4" toLane="1"/>
	<delete from="L61" to="L10113" fromLane="1" toLane="0"/>
	<delete from="L61" to="L10113" fromLane="2" toLane="1"/>
	<delete from="L61" to="L10113" fromLane="2" toLane="2"/>	
	<delete from="L61" to="L10113" fromLane="3" toLane="0"/>
	<delete from="L61" to="L10113" fromLane="4" toLane="1"/>
	<delete from="L61" to="L225" fromLane="4" toLane="0"/>
	<delete from="L61" to="L225" fromLane="4" toLane="1"/>
	<delete from="L61" to="L225" fromLane="4" toLane="2"/>
	<delete from="L61" to="L196" fromLane="2" toLane="0"/>
	<delete from="L61" to="L196" fromLane="2" toLane="1"/>	
	<delete from="L61" to="L10029" fromLane="2" toLane="0"/>	
	<delete from="L61" to="L10029" fromLane="2" toLane="1"/>	
	<delete from="L61" to="L10029" fromLane="2" toLane="2"/>
	<delete from="L61" to="L10029" fromLane="3" toLane="0"/>	
	<delete from="L61" to="L10029" fromLane="3" toLane="1"/>	
	<delete from="L61" to="L10029" fromLane="3" toLane="2"/>		
	<!--<delete from="L61" to="L10114" fromLane="4" toLane="2"/>
	<delete from="L61" to="L10114" fromLane="4" toLane="3"/>-->
	<connection from="L30767" to="L196" fromLane="0" toLane="0"/>
	<connection from="L30767" to="L196" fromLane="0" toLane="1"/>
	<connection from="L30767" to="L10029" fromLane="1" toLane="1"/>
	<connection from="L30767" to="L10029" fromLane="1" toLane="2"/>
	<connection from="L30767" to="L10029" fromLane="2" toLane="1"/>
	<connection from="L30767" to="L10029" fromLane="2" toLane="2"/>
	<delete from="L30767" to="L10029" fromLane="0" toLane="0"/>
	<delete from="L30767" to="L10029" fromLane="0" toLane="1"/>
	<delete from="L30767" to="L10029" fromLane="0" toLane="2"/>
	<delete from="L30767" to="L196" fromLane="2" toLane="0"/>
	<delete from="L30767" to="L196" fromLane="2" toLane="1"/>
	<delete from="L30767" to="L10113" fromLane="0" toLane="0"/>
	<delete from="L30767" to="L10113" fromLane="0" toLane="1"/>
	<delete from="L30767" to="L10113" fromLane="1" toLane="0"/>
	<delete from="L30767" to="L10113" fromLane="1" toLane="1"/>
	<delete from="L30767" to="L10113" fromLane="1" toLane="2"/>
	<delete from="L30767" to="L10113" fromLane="2" toLane="0"/>
	<delete from="L30767" to="L10113" fromLane="2" toLane="1"/>
    <delete from="L30767" to="L225" fromLane="0" toLane="0"/>
    <delete from="L30767" to="L225" fromLane="0" toLane="1"/>
    <delete from="L30767" to="L225" fromLane="0" toLane="2"/>
	<delete from="L30767" to="L225" fromLane="1" toLane="0"/>
	<delete from="L30767" to="L225" fromLane="2" toLane="1"/>
	<delete from="L30767" to="L225" fromLane="2" toLane="2"/>
	<connection from="L225" to="L10114" fromLane="0" toLane="0"/>
	<connection from="L225" to="L10114" fromLane="0" toLane="1"/>
	<connection from="L225" to="L10114" fromLane="0" toLane="2"/>
	<connection from="L225" to="L10114" fromLane="0" toLane="3"/>
	<connection from="L225" to="L10114" fromLane="1" toLane="0"/>
	<connection from="L225" to="L10114" fromLane="1" toLane="1"/>
	<connection from="L225" to="L10114" fromLane="1" toLane="2"/>
	<connection from="L225" to="L10114" fromLane="1" toLane="3"/>
	<connection from="L225" to="L10114" fromLane="2" toLane="0"/>
	<connection from="L225" to="L10114" fromLane="2" toLane="1"/>
	<connection from="L225" to="L10114" fromLane="2" toLane="2"/>
	<connection from="L225" to="L10114" fromLane="2" toLane="3"/>	
	<!--Narathon Intersection-->
	<connection from="L240" to="L4" fromLane="0" toLane="0"/>
	<connection from="L240" to="L45" fromLane="1" toLane="0"/>
	<connection from="L240" to="L45" fromLane="1" toLane="1"/>
	<connection from="L240" to="L45" fromLane="1" toLane="2"/>
	<connection from="L240" to="L45" fromLane="1" toLane="3"/>
	<connection from="L240" to="L45" fromLane="2" toLane="0"/>
	<connection from="L240" to="L45" fromLane="2" toLane="1"/>
	<connection from="L240" to="L45" fromLane="2" toLane="2"/>
	<connection from="L240" to="L45" fromLane="2" toLane="3"/>
	<connection from="L240" to="L45" fromLane="3" toLane="0"/>
	<connection from="L240" to="L45" fromLane="3" toLane="1"/>
	<connection from="L240" to="L45" fromLane="3" toLane="2"/>
	<connection from="L240" to="L45" fromLane="3" toLane="3"/>
	<connection from="L240" to="L96" fromLane="3" toLane="1"/>
	<connection from="L240" to="L96" fromLane="3" toLane="2"/>
	<connection from="L240" to="L96" fromLane="4" toLane="1"/>
	<connection from="L240" to="L96" fromLane="4" toLane="2"/>
	<connection from="L240" to="L25" fromLane="4" toLane="2"/>
	<connection from="L240" to="L25" fromLane="4" toLane="3"/>
	<delete from="L240" to="L4" fromLane="0" toLane="1"/>
	<delete from="L240" to="L4" fromLane="1" toLane="1"/>
	<delete from="L240" to="L4" fromLane="1" toLane="2"/>
	<delete from="L240" to="L4" fromLane="3" toLane="2"/>
	<delete from="L240" to="L45" fromLane="4" toLane="0"/>
	<delete from="L240" to="L45" fromLane="4" toLane="1"/>
	<delete from="L240" to="L45" fromLane="4" toLane="2"/>
	<delete from="L240" to="L45" fromLane="4" toLane="3"/>	
	<delete from="L240" to="L25" fromLane="3" toLane="0"/>	
	<delete from="L240" to="L25" fromLane="3" toLane="1"/>	
	<delete from="L240" to="L25" fromLane="3" toLane="2"/>	
	<delete from="L240" to="L25" fromLane="3" toLane="3"/>	
	<connection from="L97" to="L25" fromLane="0" toLane="2"/>
	<connection from="L97" to="L25" fromLane="0" toLane="3"/>
	<connection from="L97" to="L4" fromLane="1" toLane="0"/>
	<connection from="L97" to="L4" fromLane="1" toLane="1"/>
	<connection from="L97" to="L4" fromLane="1" toLane="2"/>
	<connection from="L97" to="L4" fromLane="2" toLane="0"/>
	<connection from="L97" to="L4" fromLane="2" toLane="1"/>
	<connection from="L97" to="L4" fromLane="2" toLane="2"/>
	<connection from="L97" to="L45" fromLane="2" toLane="2"/>
	<connection from="L97" to="L45" fromLane="2" toLane="3"/>
	<connection from="L97" to="L45" fromLane="3" toLane="2"/>
	<connection from="L97" to="L45" fromLane="3" toLane="3"/>
	<delete from="L97" to="L25" fromLane="1" toLane="1"/>
	<delete from="L97" to="L25" fromLane="2" toLane="2"/>
	<delete from="L97" to="L25" fromLane="2" toLane="3"/>	
	<delete from="L97" to="L25" fromLane="3" toLane="3"/>
	<delete from="L97" to="L4" fromLane="3" toLane="0"/>
	<delete from="L97" to="L4" fromLane="3" toLane="1"/>
	<delete from="L97" to="L4" fromLane="3" toLane="2"/>
	<delete from="L97" to="L96" fromLane="2" toLane="0"/>
	<delete from="L97" to="L96" fromLane="2" toLane="1"/>
	<delete from="L97" to="L96" fromLane="2" toLane="2"/>
	<delete from="L97" to="L96" fromLane="2" toLane="3"/>
	<delete from="L97" to="L96" fromLane="3" toLane="0"/>
	<delete from="L97" to="L96" fromLane="3" toLane="1"/>
	<delete from="L97" to="L96" fromLane="3" toLane="2"/>
	<delete from="L97" to="L96" fromLane="3" toLane="3"/>	
	<delete from="L97" to="L96" fromLane="3" toLane="0"/>
	<delete from="L97" to="L96" fromLane="3" toLane="1"/>
	<delete from="L97" to="L96" fromLane="3" toLane="2"/>
	<connection from="L10217" to="L25" fromLane="1" toLane="0"/>
	<connection from="L10217" to="L25" fromLane="1" toLane="1"/>
	<connection from="L10217" to="L25" fromLane="1" toLane="2"/>
	<connection from="L10217" to="L25" fromLane="1" toLane="3"/>
	<connection from="L10217" to="L25" fromLane="2" toLane="0"/>
	<connection from="L10217" to="L25" fromLane="2" toLane="1"/>
	<connection from="L10217" to="L25" fromLane="2" toLane="2"/>
	<connection from="L10217" to="L25" fromLane="2" toLane="3"/>
	<connection from="L10217" to="L25" fromLane="3" toLane="0"/>
	<connection from="L10217" to="L25" fromLane="3" toLane="1"/>
	<connection from="L10217" to="L25" fromLane="3" toLane="2"/>
	<connection from="L10217" to="L25" fromLane="3" toLane="3"/>
	<connection from="L10217" to="L25" fromLane="4" toLane="0"/>
	<connection from="L10217" to="L25" fromLane="4" toLane="1"/>
	<connection from="L10217" to="L25" fromLane="4" toLane="2"/>
	<connection from="L10217" to="L25" fromLane="4" toLane="3"/>
	<connection from="L10217" to="L96" fromLane="0" toLane="0"/>
	<delete from="L10217" to="L96" fromLane="1" toLane="1"/>
	<delete from="L10217" to="L96" fromLane="3" toLane="2"/>
	<delete from="L10217" to="L4" fromLane="4" toLane="0"/>
	<delete from="L10217" to="L4" fromLane="4" toLane="1"/>
	<delete from="L10217" to="L4" fromLane="4" toLane="2"/>
	<delete from="L10217" to="L45" fromLane="4" toLane="0"/>
	<delete from="L10217" to="L45" fromLane="4" toLane="1"/>
	<delete from="L10217" to="L45" fromLane="4" toLane="2"/>
	<delete from="L10217" to="L45" fromLane="4" toLane="3"/>	
	<connection from="L220" to="L25" fromLane="3" toLane="3"/>
	<connection from="L220" to="L25" fromLane="3" toLane="2"/>
	<connection from="L220" to="L25" fromLane="2" toLane="3"/>
	<connection from="L220" to="L25" fromLane="2" toLane="2"/>
	<connection from="L220" to="L96" fromLane="2" toLane="0"/>
	<connection from="L220" to="L96" fromLane="2" toLane="1"/>
	<connection from="L220" to="L96" fromLane="2" toLane="2"/>
	<connection from="L220" to="L96" fromLane="1" toLane="0"/>
	<connection from="L220" to="L96" fromLane="1" toLane="1"/>
	<connection from="L220" to="L96" fromLane="1" toLane="2"/>
	<connection from="L220" to="L45" fromLane="0" toLane="0"/>
	<connection from="L220" to="L45" fromLane="0" toLane="1"/>
	<delete from="L220" to="L45" fromLane="1" toLane="1"/>
	<delete from="L220" to="L45" fromLane="2" toLane="2"/>
	<delete from="L220" to="L45" fromLane="3" toLane="3"/>	
	<delete from="L220" to="L96" fromLane="3" toLane="0"/>
	<delete from="L220" to="L96" fromLane="3" toLane="1"/>
	<delete from="L220" to="L96" fromLane="3" toLane="2"/>
	<delete from="L220" to="L4" fromLane="3" toLane="0"/>
	<delete from="L220" to="L4" fromLane="3" toLane="1"/>
	<delete from="L220" to="L4" fromLane="3" toLane="2"/>	
	<!--Sathorn Intersection-->
	<connection from="L239" to="L10150" fromLane="0" toLane="0"/>
	<connection from="L239" to="L10150" fromLane="0" toLane="1"/>
	<connection from="L239" to="L10150" fromLane="0" toLane="2"/>
	<connection from="L239" to="L10150" fromLane="0" toLane="3"/>
	<connection from="L239" to="L10150" fromLane="1" toLane="0"/>
	<connection from="L239" to="L10150" fromLane="1" toLane="1"/>
	<connection from="L239" to="L10150" fromLane="1" toLane="2"/>
	<connection from="L239" to="L10150" fromLane="1" toLane="3"/>
	<connection from="L239" to="L10150" fromLane="2" toLane="0"/>
	<connection from="L239" to="L10150" fromLane="2" toLane="1"/>
	<connection from="L239" to="L10150" fromLane="2" toLane="2"/>
	<connection from="L239" to="L10150" fromLane="2" toLane="3"/>
	<connection from="L239" to="L10150" fromLane="3" toLane="0"/>
	<connection from="L239" to="L10150" fromLane="3" toLane="1"/>
	<connection from="L239" to="L10150" fromLane="3" toLane="2"/>
	<connection from="L239" to="L10150" fromLane="3" toLane="3"/>
	<delete from="L239" to="L72" fromLane="3" toLane="0"/>
	<delete from="L239" to="L72" fromLane="3" toLane="1"/>
	<delete from="L239" to="L72" fromLane="3" toLane="2"/>
	<delete from="L239" to="L30" fromLane="3" toLane="2"/>
	<delete from="L239" to="L30" fromLane="3" toLane="3"/>	
	<connection from="L40" to="L30" fromLane="0" toLane="0"/>
	<connection from="L40" to="L30" fromLane="0" toLane="1"/>
	<connection from="L40" to="L30" fromLane="1" toLane="0"/>
	<connection from="L40" to="L30" fromLane="1" toLane="1"/>
	<connection from="L40" to="L10150" fromLane="2" toLane="2"/>
	<connection from="L40" to="L10150" fromLane="2" toLane="3"/>
	<connection from="L40" to="L10150" fromLane="3" toLane="2"/>
	<connection from="L40" to="L10150" fromLane="3" toLane="3"/>
	<delete from="L40" to="L72" fromLane="2" toLane="2"/>
	<delete from="L40" to="L72" fromLane="2" toLane="3"/>
	<delete from="L40" to="L72" fromLane="3" toLane="1"/>
	<delete from="L40" to="L72" fromLane="2" toLane="1"/>
	<delete from="L40" to="L72" fromLane="3" toLane="2"/>
	<delete from="L40" to="L72" fromLane="3" toLane="3"/>		
	<connection from="L197#2" to="L72" fromLane="0" toLane="0"/>
	<connection from="L197#2" to="L30" fromLane="1" toLane="0"/>
	<connection from="L197#2" to="L30" fromLane="1" toLane="1"/>
	<connection from="L197#2" to="L30" fromLane="1" toLane="2"/>
	<connection from="L197#2" to="L30" fromLane="1" toLane="3"/>
	<connection from="L197#2" to="L30" fromLane="2" toLane="0"/>
	<connection from="L197#2" to="L30" fromLane="2" toLane="1"/>
	<connection from="L197#2" to="L30" fromLane="2" toLane="2"/>
	<connection from="L197#2" to="L30" fromLane="2" toLane="3"/>
	<connection from="L197#2" to="L30" fromLane="3" toLane="0"/>
	<connection from="L197#2" to="L30" fromLane="3" toLane="1"/>
	<connection from="L197#2" to="L30" fromLane="3" toLane="2"/>
	<connection from="L197#2" to="L30" fromLane="3" toLane="3"/>
	<connection from="L197#2" to="L30" fromLane="4" toLane="0"/>
	<connection from="L197#2" to="L30" fromLane="4" toLane="1"/>
	<connection from="L197#2" to="L30" fromLane="4" toLane="2"/>
	<connection from="L197#2" to="L30" fromLane="4" toLane="3"/>
	<delete from="L197#2" to="L72" fromLane="0" toLane="1"/>
	<delete from="L197#2" to="L10150" fromLane="4" toLane="2"/>
	<delete from="L197#2" to="L10150" fromLane="4" toLane="3"/>	
	<connection from="L10189" to="L30" fromLane="3" toLane="2"/>
	<connection from="L10189" to="L30" fromLane="3" toLane="3"/>
	<connection from="L10189" to="L30" fromLane="2" toLane="2"/>
	<connection from="L10189" to="L30" fromLane="2" toLane="3"/>
	<connection from="L10189" to="L30" fromLane="1" toLane="2"/>
	<connection from="L10189" to="L30" fromLane="1" toLane="3"/>
	<connection from="L10189" to="L72" fromLane="1" toLane="0"/>
	<connection from="L10189" to="L72" fromLane="1" toLane="1"/>
	<connection from="L10189" to="L72" fromLane="1" toLane="2"/>
	<connection from="L10189" to="L72" fromLane="0" toLane="0"/>
	<connection from="L10189" to="L72" fromLane="0" toLane="1"/>
	<connection from="L10189" to="L72" fromLane="0" toLane="2"/>
	<connection from="L10189" to="L10150" fromLane="0" toLane="0"/>
	<connection from="L10189" to="L10150" fromLane="0" toLane="1"/>
	<delete from="L10189" to="L72" fromLane="3" toLane="1"/>
	<delete from="L10189" to="L72" fromLane="3" toLane="2"/>
	<delete from="L10189" to="L72" fromLane="2" toLane="0"/>
	<delete from="L10189" to="L10150" fromLane="1" toLane="1"/>
	<!--Chaloemphan Intersection-->
	<connection from="L30032" to="L60" fromLane="0" toLane="0"/>
	<connection from="L30032" to="L60" fromLane="0" toLane="1"/>
	<connection from="L30032" to="L60" fromLane="1" toLane="0"/>
	<connection from="L30032" to="L60" fromLane="1" toLane="1"/>
	<connection from="L30032" to="L21" fromLane="1" toLane="0"/>
	<connection from="L58#2" to="L60" fromLane="1" toLane="0"/>
	<connection from="L58#2" to="L60" fromLane="1" toLane="1"/>
	<connection from="L58#2" to="L60" fromLane="2" toLane="0"/>
	<connection from="L58#2" to="L60" fromLane="2" toLane="1"/>
	<connection from="L58#2" to="L68" fromLane="0" toLane="0"/>
	<connection from="L58#2" to="L68" fromLane="0" toLane="1"/>
	<delete from="L58#2" to="L68" fromLane="1" toLane="1"/>
	<connection from="L30940" to="L68" fromLane="1" toLane="0"/>
	<connection from="L30940" to="L68" fromLane="1" toLane="1"/>
	<connection from="L30940" to="L68" fromLane="0" toLane="0"/>
	<connection from="L30940" to="L68" fromLane="0" toLane="1"/>
	<connection from="L30940" to="L21" fromLane="0" toLane="0"/>
	<!--Saladaeng Intersection-->
	<connection from="L10199" to="L10168" fromLane="0" toLane="1"/>
	<connection from="L10199" to="L10168" fromLane="0" toLane="2"/>
	<delete from="L10199" to="L10168" fromLane="1" toLane="1"/>
	<connection from="L10199" to="L118" fromLane="1" toLane="0"/>
	<connection from="L10199" to="L118" fromLane="1" toLane="1"/>
	<connection from="L10199" to="L118" fromLane="1" toLane="2"/>
	<connection from="L10199" to="L118" fromLane="2" toLane="2"/>
	<delete from="L10199" to="L118" fromLane="3" toLane="2"/>
	<connection from="L10199" to="L154" fromLane="3" toLane="0"/>
	<connection from="L10199" to="L154" fromLane="3" toLane="1"/>
	<connection from="L10199" to="L154" fromLane="3" toLane="2"/>
	<connection from="L10199" to="L154" fromLane="4" toLane="0"/>
	<connection from="L10199" to="L154" fromLane="4" toLane="1"/>
	<connection from="L10199" to="L154" fromLane="4" toLane="2"/>
	<connection from="L10017" to="L10168" fromLane="1" toLane="0"/>
	<connection from="L10017" to="L10168" fromLane="1" toLane="1"/>
	<connection from="L10017" to="L10168" fromLane="1" toLane="2"/>
	<connection from="L10017" to="L10168" fromLane="2" toLane="0"/>
	<connection from="L10017" to="L10168" fromLane="2" toLane="1"/>
	<connection from="L10017" to="L10168" fromLane="2" toLane="2"/>
	<connection from="L10017" to="L118" fromLane="2" toLane="1"/>
	<connection from="L10017" to="L118" fromLane="2" toLane="2"/>
	<delete from="L10017" to="L52" fromLane="1" toLane="1"/>
	<delete from="L10017" to="L52" fromLane="2" toLane="2"/>
	<delete from="L10017" to="L52" fromLane="1" toLane="2"/>
	<delete from="L10017" to="L10168" fromLane="2" toLane="0"/>
	<delete from="L10017" to="L10168" fromLane="2" toLane="1"/>
	<delete from="L10017" to="L10168" fromLane="2" toLane="2"/>
	<delete from="L10017" to="L10168" fromLane="3" toLane="0"/>
	<delete from="L10017" to="L10168" fromLane="3" toLane="1"/>
	<delete from="L10017" to="L10168" fromLane="3" toLane="2"/>
	<connection from="L7" to="L52" fromLane="1" toLane="0"/>
	<connection from="L7" to="L52" fromLane="1" toLane="1"/>
	<connection from="L7" to="L52" fromLane="1" toLane="2"/>
	<connection from="L7" to="L154" fromLane="0" toLane="0"/>
	<delete from="L7" to="L154" fromLane="1" toLane="0"/>
	<delete from="L7" to="L154" fromLane="1" toLane="1"/>
	<delete from="L7" to="L154" fromLane="1" toLane="2"/>
	<delete from="L7" to="L154" fromLane="2" toLane="0"/>
	<delete from="L7" to="L154" fromLane="2" toLane="1"/>
	<delete from="L7" to="L154" fromLane="2" toLane="2"/>
	<delete from="L7" to="L10168" fromLane="2" toLane="0"/>
	<delete from="L7" to="L10168" fromLane="2" toLane="1"/>
	<delete from="L7" to="L10168" fromLane="2" toLane="2"/>
	<delete from="L7" to="L52" fromLane="0" toLane="0"/>
	<delete from="L7" to="L118" fromLane="2" toLane="0"/>
	<delete from="L7" to="L118" fromLane="2" toLane="1"/>
	<delete from="L7" to="L118" fromLane="2" toLane="2"/>
	<delete from="L7" to="L118" fromLane="3" toLane="0"/>
	<delete from="L7" to="L118" fromLane="3" toLane="1"/>
	<delete from="L7" to="L118" fromLane="3" toLane="2"/>
	<connection from="L7" to="L10168" fromLane="3" toLane="0"/>
	<connection from="L7" to="L10168" fromLane="3" toLane="1"/>
	<connection from="L7" to="L10168" fromLane="3" toLane="2"/>
	<connection from="L7" to="L10168" fromLane="4" toLane="0"/>
	<connection from="L7" to="L10168" fromLane="4" toLane="1"/>
	<connection from="L7" to="L10168" fromLane="4" toLane="2"/>	
	<connection from="L7" to="L52" fromLane="1" toLane="0"/>
	<connection from="L7" to="L52" fromLane="1" toLane="1"/>
	<connection from="L7" to="L52" fromLane="1" toLane="2"/>
	<connection from="L7" to="L52" fromLane="2" toLane="0"/>
	<connection from="L7" to="L52" fromLane="2" toLane="1"/>
	<connection from="L7" to="L52" fromLane="2" toLane="2"/>	
	<connection from="L176" to="L52" fromLane="2" toLane="0"/>
	<connection from="L176" to="L52" fromLane="2" toLane="1"/>
	<connection from="L176" to="L52" fromLane="2" toLane="2"/>
	<connection from="L176" to="L52" fromLane="3" toLane="0"/>
	<connection from="L176" to="L52" fromLane="3" toLane="1"/>
	<connection from="L176" to="L52" fromLane="3" toLane="2"/>
	<connection from="L176" to="L52" fromLane="3" toLane="3"/>
	<connection from="L176" to="L52" fromLane="3" toLane="4"/>
	<connection from="L176" to="L154" fromLane="0" toLane="0"/>
	<connection from="L176" to="L154" fromLane="0" toLane="1"/>
	<connection from="L176" to="L154" fromLane="0" toLane="2"/>
	<connection from="L176" to="L154" fromLane="1" toLane="0"/>
	<connection from="L176" to="L154" fromLane="1" toLane="0"/>
	<connection from="L176" to="L154" fromLane="1" toLane="1"/>
	<connection from="L176" to="L154" fromLane="1" toLane="2"/>
	<delete from="L176" to="L154" fromLane="3" toLane="0"/>
	<delete from="L176" to="L154" fromLane="3" toLane="1"/>
	<delete from="L176" to="L154" fromLane="3" toLane="2"/>
	<delete from="L176" to="L118" fromLane="1" toLane="0"/>
	<delete from="L176" to="L118" fromLane="2" toLane="0"/>
	<delete from="L176" to="L118" fromLane="2" toLane="1"/>
	<delete from="L176" to="L118" fromLane="2" toLane="2"/>
	<delete from="L176" to="L118" fromLane="3" toLane="1"/>
	<delete from="L176" to="L118" fromLane="3" toLane="2"/>
	<delete from="L176" to="L10168" fromLane="2" toLane="0"/>
	<delete from="L176" to="L10168" fromLane="2" toLane="1"/>
	<delete from="L176" to="L10168" fromLane="2" toLane="2"/>
	<delete from="L176" to="L10168" fromLane="3" toLane="0"/>
	<delete from="L176" to="L10168" fromLane="3" toLane="1"/>
	<delete from="L176" to="L10168" fromLane="3" toLane="2"/>
	<!--Naralom Intersection-->
	<connection from="L143" to="L145" fromLane="0" toLane="0"/>
	<connection from="L143" to="L145" fromLane="0" toLane="1"/>
	<connection from="L143" to="L145" fromLane="0" toLane="2"/>
	<connection from="L143" to="L145" fromLane="1" toLane="0"/>
	<connection from="L143" to="L145" fromLane="1" toLane="1"/>
	<connection from="L143" to="L145" fromLane="1" toLane="2"/>
	<delete from="L143" to="L145" fromLane="2" toLane="0"/>
	<delete from="L143" to="L145" fromLane="2" toLane="1"/>
	<delete from="L143" to="L145" fromLane="2" toLane="2"/>
	<delete from="L143" to="L54" fromLane="1" toLane="1"/>
	<delete from="L143" to="L54" fromLane="2" toLane="2"/>
	<delete from="L143" to="L54" fromLane="2" toLane="3"/>
	<delete from="L143" to="L54" fromLane="2" toLane="4"/>
	<delete from="L143" to="L10195" fromLane="2" toLane="0"/>
	<delete from="L143" to="L10195" fromLane="2" toLane="1"/>
	<delete from="L143" to="L10195" fromLane="2" toLane="2"/>
	<connection from="L70" to="L54" fromLane="1" toLane="0"/>
	<connection from="L70" to="L54" fromLane="1" toLane="1"/>
	<connection from="L70" to="L54" fromLane="1" toLane="2"/>
	<connection from="L70" to="L54" fromLane="2" toLane="0"/>
	<connection from="L70" to="L54" fromLane="2" toLane="1"/>
	<connection from="L70" to="L54" fromLane="2" toLane="2"/>
	<connection from="L70" to="L54" fromLane="2" toLane="3"/>
	<connection from="L70" to="L54" fromLane="2" toLane="4"/>
	<connection from="L70" to="L54" fromLane="3" toLane="1"/>
	<connection from="L70" to="L54" fromLane="3" toLane="2"/>
	<connection from="L70" to="L54" fromLane="3" toLane="3"/>
	<connection from="L70" to="L54" fromLane="3" toLane="4"/>	
	<delete from="L70" to="L10195" fromLane="1" toLane="1"/>
	<delete from="L70" to="L10195" fromLane="2" toLane="2"/>
	<delete from="L70" to="L145" fromLane="2" toLane="0"/>
	<delete from="L70" to="L145" fromLane="2" toLane="1"/>
	<delete from="L70" to="L145" fromLane="2" toLane="2"/>
	<connection from="L148" to="L10195" fromLane="1" toLane="0"/>
	<connection from="L148" to="L10195" fromLane="1" toLane="1"/>
	<connection from="L148" to="L10195" fromLane="1" toLane="2"/>
	<delete from="L148" to="L83" fromLane="1" toLane="1"/>
	<delete from="L148" to="L83" fromLane="2" toLane="2"/>
	<delete from="L148" to="L10195" fromLane="2" toLane="0"/>
	<delete from="L148" to="L10195" fromLane="2" toLane="1"/>
	<delete from="L148" to="L10195" fromLane="2" toLane="2"/>
	<connection from="L53" to="L83" fromLane="1" toLane="0"/>
	<connection from="L53" to="L83" fromLane="1" toLane="1"/>
	<connection from="L53" to="L83" fromLane="1" toLane="2"/>
	<connection from="L53" to="L83" fromLane="2" toLane="0"/>
	<connection from="L53" to="L83" fromLane="2" toLane="1"/>
	<connection from="L53" to="L83" fromLane="2" toLane="2"/>
	<connection from="L53" to="L83" fromLane="3" toLane="0"/>
	<connection from="L53" to="L83" fromLane="3" toLane="1"/>
	<connection from="L53" to="L83" fromLane="3" toLane="2"/>
	<connection from="L53" to="L10195" fromLane="4" toLane="0"/>
	<connection from="L53" to="L10195" fromLane="4" toLane="1"/>
	<connection from="L53" to="L10195" fromLane="4" toLane="2"/>
	<delete from="L53" to="L10195" fromLane="3" toLane="0"/>
	<delete from="L53" to="L10195" fromLane="3" toLane="1"/>
	<delete from="L53" to="L10195" fromLane="3" toLane="2"/>
	<delete from="L53" to="L145" fromLane="1" toLane="0"/>
	<delete from="L53" to="L145" fromLane="1" toLane="1"/>
	<delete from="L53" to="L145" fromLane="3" toLane="2"/>
	<delete from="L53" to="L83" fromLane="3" toLane="0"/>
	<delete from="L53" to="L83" fromLane="3" toLane="1"/>
	<delete from="L53" to="L83" fromLane="3" toLane="2"/>
	<delete from="L53" to="L54" fromLane="3" toLane="0"/>